/*--------------------------------*- C++ -*----------------------------------*\
  =========                 |
  \\      /  F ield         | OpenFOAM: The Open Source CFD Toolbox
   \\    /   O peration     | Website:  https://openfoam.org
    \\  /    A nd           | Version:  8
     \\/     M anipulation  |
\*---------------------------------------------------------------------------*/
FoamFile
{
    version     2.0;
    format      ascii;
    class       featureEdgeMesh;
    location    "constant/triSurface";
    object      dn90fagai.eMesh;
}
// * * * * * * * * * * * * * * * * * * * * * * * * * * * * * * * * * * * * * //


// points:

4702
(
(-0.0602048 0.00572651 0.0617)
(0.11175 1.15879e-08 0.0208)
(0.101477 -0.0047903 0.0208)
(0.0897847 -0.00287368 0.0208)
(0.0897847 0.00287434 0.0208)
(0.101475 0.00479267 0.0208)
(-0.0898307 -6.03485e-09 0.0208)
(-0.100104 -0.00479032 0.0208)
(-0.111796 -0.0028737 0.0208)
(-0.111796 0.00287432 0.0208)
(-0.100105 0.00479265 0.0208)
(0.00353319 0.0801221 0.000499993)
(0.00353143 -0.0801222 0.000500007)
(-0.00353319 -0.0801221 0.000500007)
(-0.00353143 0.0801222 0.000499993)
(-0.0639943 -0.00551242 0.0616884)
(-0.100105 0.00287429 0.0203)
(0.101477 -0.00287361 0.0203)
(0.101476 0.00287431 0.0203)
(-0.100104 -0.00287363 0.0203)
(0.00325716 -0.0801189 -0.000345996)
(0.00325714 0.0801189 -0.000346011)
(-0.00326195 -0.080119 -0.000336904)
(-0.00326197 0.080119 -0.000336918)
(-0.111796 0.00287432 0.0203)
(-0.111796 -0.0028737 0.0203)
(-0.100104 -0.00479032 0.0203)
(-0.100105 0.00479265 0.0203)
(-0.0898307 -6.07857e-09 0.0203)
(0.11175 1.15442e-08 0.0203)
(0.0897847 -0.00287368 0.0203)
(0.101477 -0.0047903 0.0203)
(0.101475 0.00479267 0.0203)
(0.0897847 0.00287434 0.0203)
(0.101477 -0.00287361 0.0208)
(0.101476 0.00287431 0.0208)
(-0.100104 -0.00287363 0.0208)
(-0.100105 0.00287429 0.0208)
(-0.06325 -2.0151e-09 0.0402)
(-0.0630909 -0.00100431 0.0402)
(-0.0626293 -0.0019103 0.0402)
(-0.0619103 -0.00262931 0.0402)
(-0.0610043 -0.00309093 0.0402)
(-0.06 -0.00325 0.0402)
(-0.0589957 -0.00309093 0.0402)
(-0.0580897 -0.00262931 0.0402)
(-0.0573707 -0.0019103 0.0402)
(-0.0569091 -0.00100431 0.0402)
(-0.05675 -1.44685e-09 0.0402)
(-0.0569091 0.00100431 0.0402)
(-0.0573707 0.0019103 0.0402)
(-0.0580897 0.00262931 0.0402)
(-0.0589957 0.00309093 0.0402)
(-0.06 0.00325 0.0402)
(-0.0610043 0.00309093 0.0402)
(-0.0619103 0.00262931 0.0402)
(-0.0626293 0.0019103 0.0402)
(-0.0630909 0.00100431 0.0402)
(7.14116e-09 -0.0816853 -0.000349993)
(0.00502863 -0.0815303 -0.000349993)
(0.0100382 -0.0810661 -0.000349993)
(0.0150096 -0.0802944 -0.000349993)
(0.0199242 -0.0792181 -0.000349993)
(0.0247631 -0.0778413 -0.000349993)
(0.0295081 -0.0761693 -0.000349993)
(0.0341412 -0.0742082 -0.000349993)
(0.0386448 -0.0719657 -0.000349994)
(0.0430018 -0.0694502 -0.000349994)
(0.0471956 -0.0666713 -0.000349994)
(0.0512104 -0.0636394 -0.000349994)
(0.055031 -0.0603661 -0.000349995)
(0.0586428 -0.0568639 -0.000349995)
(0.0620322 -0.0531459 -0.000349995)
(0.0651863 -0.0492264 -0.000349996)
(0.068093 -0.0451201 -0.000349996)
(0.0707415 -0.0408426 -0.000349996)
(0.0731217 -0.0364103 -0.000349997)
(0.0752244 -0.0318398 -0.000349997)
(0.0770418 -0.0271485 -0.000349998)
(0.078567 -0.0223542 -0.000349998)
(0.0797941 -0.0174752 -0.000349998)
(0.0807186 -0.0125298 -0.000349999)
(0.0813368 -0.00753696 -0.000349999)
(0.0816465 -0.00251549 -0.00035)
(0.0816465 0.00251551 -0.00035)
(0.0813368 0.00753698 -0.000350001)
(0.0807186 0.0125298 -0.000350001)
(0.0797941 0.0174752 -0.000350002)
(0.078567 0.0223542 -0.000350002)
(0.0770418 0.0271485 -0.000350002)
(0.0752244 0.0318398 -0.000350003)
(0.0731217 0.0364103 -0.000350003)
(0.0707415 0.0408426 -0.000350004)
(0.068093 0.0451201 -0.000350004)
(0.0651863 0.0492264 -0.000350004)
(0.0620322 0.0531459 -0.000350005)
(0.0586428 0.0568639 -0.000350005)
(0.055031 0.0603661 -0.000350005)
(0.0512104 0.0636394 -0.000350006)
(0.0471956 0.0666713 -0.000350006)
(0.0430018 0.0694502 -0.000350006)
(0.0386448 0.0719657 -0.000350006)
(0.0341412 0.0742082 -0.000350006)
(0.0295081 0.0761693 -0.000350007)
(0.0247631 0.0778413 -0.000350007)
(0.0199242 0.0792181 -0.000350007)
(0.0150096 0.0802944 -0.000350007)
(0.0100382 0.0810661 -0.000350007)
(0.00502861 0.0815303 -0.000350007)
(-7.14116e-09 0.0816853 -0.000350007)
(-7.01002e-09 0.0801853 -0.000350007)
(7.01002e-09 -0.0801853 -0.000349993)
(-0.00502863 0.0815303 -0.000350007)
(-0.0100382 0.0810661 -0.000350007)
(-0.0150096 0.0802944 -0.000350007)
(-0.0199242 0.0792181 -0.000350007)
(-0.0247631 0.0778413 -0.000350007)
(-0.0295081 0.0761693 -0.000350007)
(-0.0341412 0.0742082 -0.000350006)
(-0.0386448 0.0719657 -0.000350006)
(-0.0430018 0.0694502 -0.000350006)
(-0.0471956 0.0666713 -0.000350006)
(-0.0512104 0.0636394 -0.000350006)
(-0.055031 0.0603661 -0.000350005)
(-0.0586428 0.0568639 -0.000350005)
(-0.0620322 0.0531459 -0.000350005)
(-0.0651863 0.0492264 -0.000350004)
(-0.068093 0.0451201 -0.000350004)
(-0.0707415 0.0408426 -0.000350004)
(-0.0731217 0.0364103 -0.000350003)
(-0.0752244 0.0318398 -0.000350003)
(-0.0770418 0.0271485 -0.000350002)
(-0.078567 0.0223542 -0.000350002)
(-0.0797941 0.0174752 -0.000350002)
(-0.0807186 0.0125298 -0.000350001)
(-0.0813368 0.00753696 -0.000350001)
(-0.0816465 0.00251549 -0.00035)
(-0.0816465 -0.00251551 -0.00035)
(-0.0813368 -0.00753698 -0.000349999)
(-0.0807186 -0.0125298 -0.000349999)
(-0.0797941 -0.0174752 -0.000349998)
(-0.078567 -0.0223542 -0.000349998)
(-0.0770418 -0.0271485 -0.000349998)
(-0.0752244 -0.0318398 -0.000349997)
(-0.0731217 -0.0364103 -0.000349997)
(-0.0707415 -0.0408426 -0.000349996)
(-0.068093 -0.0451201 -0.000349996)
(-0.0651863 -0.0492264 -0.000349996)
(-0.0620322 -0.0531459 -0.000349995)
(-0.0586428 -0.0568639 -0.000349995)
(-0.055031 -0.0603661 -0.000349995)
(-0.0512104 -0.0636394 -0.000349994)
(-0.0471956 -0.0666713 -0.000349994)
(-0.0430018 -0.0694502 -0.000349994)
(-0.0386448 -0.0719657 -0.000349994)
(-0.0341412 -0.0742082 -0.000349993)
(-0.0295081 -0.0761693 -0.000349993)
(-0.0247631 -0.0778413 -0.000349993)
(-0.0199242 -0.0792181 -0.000349993)
(-0.0150096 -0.0802944 -0.000349993)
(-0.0100382 -0.0810661 -0.000349993)
(-0.00502861 -0.0815303 -0.000349993)
(0.00886141 -0.0796942 -0.000336904)
(0.0158695 -0.0785993 -0.000336904)
(0.0227535 -0.0768894 -0.000336904)
(0.0294594 -0.0745777 -0.000336904)
(0.0359348 -0.0716825 -0.000336905)
(0.042129 -0.0682264 -0.000336905)
(0.0479936 -0.0642364 -0.000336905)
(0.0534825 -0.0597437 -0.000336906)
(0.058553 -0.0547836 -0.000336906)
(0.0631653 -0.0493947 -0.000336907)
(0.0672833 -0.0436194 -0.000336907)
(0.0708749 -0.0375027 -0.000336908)
(0.0739118 -0.0310925 -0.000336908)
(0.0763703 -0.0244391 -0.000336909)
(0.0782313 -0.0175944 -0.000336909)
(0.0794801 -0.010612 -0.00033691)
(0.0801069 -0.00354657 -0.000336911)
(0.0801069 0.00354659 -0.000336911)
(0.0794801 0.010612 -0.000336912)
(0.0782313 0.0175944 -0.000336913)
(0.0763703 0.0244391 -0.000336913)
(0.0739118 0.0310925 -0.000336914)
(0.0708749 0.0375027 -0.000336914)
(0.0672833 0.0436194 -0.000336915)
(0.0631653 0.0493947 -0.000336915)
(0.058553 0.0547836 -0.000336916)
(0.0534825 0.0597437 -0.000336916)
(0.0479936 0.0642364 -0.000336917)
(0.042129 0.0682264 -0.000336917)
(0.0359348 0.0716825 -0.000336917)
(0.0294594 0.0745777 -0.000336918)
(0.0227535 0.0768894 -0.000336918)
(0.0158695 0.0785993 -0.000336918)
(0.00886139 0.0796942 -0.000336918)
(-0.0088675 0.0796936 -0.000336918)
(-0.00886748 -0.0796936 -0.000336904)
(-0.0158752 -0.0785982 -0.000336904)
(-0.0227587 -0.0768878 -0.000336904)
(-0.0294641 -0.0745759 -0.000336904)
(-0.035939 -0.0716805 -0.000336905)
(-0.0421327 -0.0682242 -0.000336905)
(-0.0479967 -0.0642341 -0.000336905)
(-0.0534852 -0.0597414 -0.000336906)
(-0.0585552 -0.0547813 -0.000336906)
(-0.063167 -0.0493925 -0.000336907)
(-0.0672847 -0.0436173 -0.000336907)
(-0.0708758 -0.0375009 -0.000336908)
(-0.0739124 -0.031091 -0.000336908)
(-0.0763707 -0.0244378 -0.000336909)
(-0.0782315 -0.0175935 -0.000336909)
(-0.0794801 -0.0106114 -0.00033691)
(-0.0801069 -0.00354641 -0.000336911)
(-0.0801069 0.00354639 -0.000336911)
(-0.0794801 0.0106114 -0.000336912)
(-0.0782315 0.0175935 -0.000336913)
(-0.0763707 0.0244378 -0.000336913)
(-0.0739124 0.031091 -0.000336914)
(-0.0708758 0.0375009 -0.000336914)
(-0.0672847 0.0436173 -0.000336915)
(-0.063167 0.0493925 -0.000336915)
(-0.0585552 0.0547813 -0.000336916)
(-0.0534852 0.0597414 -0.000336916)
(-0.0479967 0.0642341 -0.000336917)
(-0.0421327 0.0682242 -0.000336917)
(-0.035939 0.0716805 -0.000336917)
(-0.0294641 0.0745759 -0.000336918)
(-0.0227587 0.0768878 -0.000336918)
(-0.0158752 0.0785982 -0.000336918)
(-0.0589957 -0.00309093 0.0482)
(-0.0580897 -0.00262931 0.0482)
(-0.0573707 -0.0019103 0.0482)
(-0.0569091 -0.00100431 0.0482)
(-0.05675 -7.47465e-10 0.0482)
(-0.0569091 0.00100431 0.0482)
(-0.0573707 0.0019103 0.0482)
(-0.0580897 0.00262931 0.0482)
(-0.0589957 0.00309093 0.0482)
(-0.06 0.00325 0.0482)
(-0.0610043 0.00309093 0.0482)
(-0.0619103 0.00262931 0.0482)
(-0.0626293 0.0019103 0.0482)
(-0.0630909 0.00100431 0.0482)
(-0.06325 -1.31571e-09 0.0482)
(-0.0630909 -0.00100431 0.0482)
(-0.0626293 -0.0019103 0.0482)
(-0.0619103 -0.00262931 0.0482)
(-0.0610043 -0.00309093 0.0482)
(-0.06 -0.00325 0.0482)
(0.104059 0.0542197 0.0017)
(0.101491 0.0556557 0.0017)
(0.11112 0.0324107 0.0017)
(0.11192 0.0352418 0.0017)
(0.112267 0.0383297 0.0017)
(0.112092 0.0414322 0.0017)
(0.1114 0.0444616 0.0017)
(0.110211 0.0473324 0.0017)
(0.108558 0.0499637 0.0017)
(0.106488 0.0522813 0.0017)
(0.112092 -0.0414322 0.0017)
(0.1114 -0.0444616 0.0017)
(0.112267 -0.0383297 0.0017)
(0.108558 -0.0499637 0.0017)
(0.106488 -0.0522813 0.0017)
(0.11112 -0.0324107 0.0017)
(0.11192 -0.0352418 0.0017)
(0.110211 -0.0473324 0.0017)
(0.104059 -0.0542197 0.0017)
(0.101491 -0.0556557 0.0017)
(-0.104059 -0.0542197 0.0017)
(-0.106488 -0.0522813 0.0017)
(-0.1114 -0.0444616 0.0017)
(-0.112092 -0.0414322 0.0017)
(-0.108558 -0.0499637 0.0017)
(-0.110211 -0.0473324 0.0017)
(-0.112267 -0.0383297 0.0017)
(-0.11192 -0.0352418 0.0017)
(-0.11112 -0.0324107 0.0017)
(-0.101491 -0.0556557 0.0017)
(-0.112092 0.0414322 0.0017)
(-0.1114 0.0444616 0.0017)
(-0.112267 0.0383297 0.0017)
(-0.108558 0.0499637 0.0017)
(-0.106488 0.0522813 0.0017)
(-0.11112 0.0324107 0.0017)
(-0.11192 0.0352418 0.0017)
(-0.110211 0.0473324 0.0017)
(-0.104059 0.0542197 0.0017)
(-0.101491 0.0556557 0.0017)
(0.0327024 0.0965778 -8.4431e-09)
(0.0321611 0.0947344 -8.28194e-09)
(0.0337411 0.0981941 -8.5844e-09)
(0.0424917 0.0994522 -8.69439e-09)
(0.0407441 0.10025 -8.76413e-09)
(0.0449824 0.0909697 -7.95282e-09)
(0.0455237 0.0928131 -8.11398e-09)
(0.0369407 0.0872972 -7.63176e-09)
(0.0388424 0.0870238 -7.60786e-09)
(0.035193 0.0880953 -7.70154e-09)
(0.0327024 0.0909697 -7.95282e-09)
(0.0337411 0.0893535 -7.81153e-09)
(0.035193 0.0994522 -8.69439e-09)
(0.0388424 0.100524 -8.78809e-09)
(0.0407441 0.0872972 -7.63176e-09)
(0.0369407 0.10025 -8.76413e-09)
(0.0455237 0.0947344 -8.28194e-09)
(0.0439437 0.0893535 -7.81153e-09)
(0.0424917 0.0880953 -7.70154e-09)
(0.0321611 0.0928131 -8.11398e-09)
(0.0449824 0.0965778 -8.4431e-09)
(0.0439437 0.0981941 -8.5844e-09)
(-0.0424917 0.0994522 -8.69439e-09)
(-0.0439437 0.0981941 -8.5844e-09)
(-0.0424917 0.0880953 -7.70154e-09)
(-0.0407441 0.0872972 -7.63176e-09)
(-0.0439437 0.0893535 -7.81153e-09)
(-0.0407441 0.10025 -8.76413e-09)
(-0.0321611 0.0947344 -8.28194e-09)
(-0.0327024 0.0965778 -8.4431e-09)
(-0.0388424 0.0870238 -7.60786e-09)
(-0.0455237 0.0928131 -8.11398e-09)
(-0.0449824 0.0909697 -7.95282e-09)
(-0.0321611 0.0928131 -8.11398e-09)
(-0.0449824 0.0965778 -8.4431e-09)
(-0.0369407 0.10025 -8.76413e-09)
(-0.0388424 0.100524 -8.78809e-09)
(-0.0327024 0.0909697 -7.95282e-09)
(-0.0337411 0.0893535 -7.81153e-09)
(-0.0455237 0.0947344 -8.28194e-09)
(-0.0337411 0.0981941 -8.5844e-09)
(-0.035193 0.0994522 -8.69439e-09)
(-0.0369407 0.0872972 -7.63176e-09)
(-0.035193 0.0880953 -7.70154e-09)
(-0.0369407 -0.0872972 7.63176e-09)
(-0.0388424 -0.0870238 7.60786e-09)
(-0.035193 -0.0880953 7.70154e-09)
(-0.0327024 -0.0909697 7.95282e-09)
(-0.0337411 -0.0893535 7.81153e-09)
(-0.0327024 -0.0965778 8.4431e-09)
(-0.0321611 -0.0947344 8.28194e-09)
(-0.0337411 -0.0981941 8.5844e-09)
(-0.0407441 -0.0872972 7.63176e-09)
(-0.0424917 -0.0994522 8.69439e-09)
(-0.0407441 -0.10025 8.76413e-09)
(-0.0424917 -0.0880953 7.70154e-09)
(-0.0321611 -0.0928131 8.11398e-09)
(-0.035193 -0.0994522 8.69439e-09)
(-0.0455237 -0.0947344 8.28194e-09)
(-0.0449824 -0.0965778 8.4431e-09)
(-0.0439437 -0.0981941 8.5844e-09)
(-0.0388424 -0.100524 8.78809e-09)
(-0.0455237 -0.0928131 8.11398e-09)
(-0.0369407 -0.10025 8.76413e-09)
(-0.0439437 -0.0893535 7.81153e-09)
(-0.0449824 -0.0909697 7.95282e-09)
(0.0455237 -0.0928131 8.11398e-09)
(0.0449824 -0.0909697 7.95282e-09)
(0.0407441 -0.10025 8.76413e-09)
(0.0424917 -0.0994522 8.69439e-09)
(0.0321611 -0.0947344 8.28194e-09)
(0.0327024 -0.0965778 8.4431e-09)
(0.0407441 -0.0872972 7.63176e-09)
(0.0388424 -0.0870238 7.60786e-09)
(0.0424917 -0.0880953 7.70154e-09)
(0.0439437 -0.0893535 7.81153e-09)
(0.0321611 -0.0928131 8.11398e-09)
(0.0455237 -0.0947344 8.28194e-09)
(0.0439437 -0.0981941 8.5844e-09)
(0.0449824 -0.0965778 8.4431e-09)
(0.0327024 -0.0909697 7.95282e-09)
(0.0337411 -0.0893535 7.81153e-09)
(0.0369407 -0.0872972 7.63176e-09)
(0.035193 -0.0880953 7.70154e-09)
(0.0369407 -0.10025 8.76413e-09)
(0.0388424 -0.100524 8.78809e-09)
(0.0337411 -0.0981941 8.5844e-09)
(0.035193 -0.0994522 8.69439e-09)
(0.0369407 -0.10025 0.0208)
(0.0388424 -0.100524 0.0208)
(0.035193 -0.0994522 0.0208)
(0.0337411 -0.0981941 0.0208)
(0.0327024 -0.0965778 0.0208)
(0.0321611 -0.0947344 0.0208)
(0.0321611 -0.0928131 0.0208)
(0.0327024 -0.0909697 0.0208)
(0.0337411 -0.0893535 0.0208)
(0.035193 -0.0880953 0.0208)
(0.0369407 -0.0872972 0.0208)
(0.0388424 -0.0870238 0.0208)
(0.0407441 -0.0872972 0.0208)
(0.0424917 -0.0880953 0.0208)
(0.0439437 -0.0893535 0.0208)
(0.0449824 -0.0909697 0.0208)
(0.0455237 -0.0928131 0.0208)
(0.0455237 -0.0947344 0.0208)
(0.0449824 -0.0965778 0.0208)
(0.0439437 -0.0981941 0.0208)
(0.0424917 -0.0994522 0.0208)
(0.0407441 -0.10025 0.0208)
(-0.0407441 0.0872972 0.0208)
(-0.0388424 0.0870238 0.0208)
(-0.0424917 0.0880953 0.0208)
(-0.0439437 0.0893535 0.0208)
(-0.0449824 0.0909697 0.0208)
(-0.0455237 0.0928131 0.0208)
(-0.0455237 0.0947344 0.0208)
(-0.0449824 0.0965778 0.0208)
(-0.0439437 0.0981941 0.0208)
(-0.0424917 0.0994522 0.0208)
(-0.0407441 0.10025 0.0208)
(-0.0388424 0.100524 0.0208)
(-0.0369407 0.10025 0.0208)
(-0.035193 0.0994522 0.0208)
(-0.0337411 0.0981941 0.0208)
(-0.0327024 0.0965778 0.0208)
(-0.0321611 0.0947344 0.0208)
(-0.0321611 0.0928131 0.0208)
(-0.0327024 0.0909697 0.0208)
(-0.0337411 0.0893535 0.0208)
(-0.035193 0.0880953 0.0208)
(-0.0369407 0.0872972 0.0208)
(0.0369407 0.0872972 0.0208)
(0.0388424 0.0870238 0.0208)
(0.035193 0.0880953 0.0208)
(0.0337411 0.0893535 0.0208)
(0.0327024 0.0909697 0.0208)
(0.0321611 0.0928131 0.0208)
(0.0321611 0.0947344 0.0208)
(0.0327024 0.0965778 0.0208)
(0.0337411 0.0981941 0.0208)
(0.035193 0.0994522 0.0208)
(0.0369407 0.10025 0.0208)
(0.0388424 0.100524 0.0208)
(0.0407441 0.10025 0.0208)
(0.0424917 0.0994522 0.0208)
(0.0439437 0.0981941 0.0208)
(0.0449824 0.0965778 0.0208)
(0.0455237 0.0947344 0.0208)
(0.0455237 0.0928131 0.0208)
(0.0449824 0.0909697 0.0208)
(0.0439437 0.0893535 0.0208)
(0.0424917 0.0880953 0.0208)
(0.0407441 0.0872972 0.0208)
(-0.0369407 -0.0872972 0.0208)
(-0.0388424 -0.0870238 0.0208)
(-0.035193 -0.0880953 0.0208)
(-0.0337411 -0.0893535 0.0208)
(-0.0327024 -0.0909697 0.0208)
(-0.0321611 -0.0928131 0.0208)
(-0.0321611 -0.0947344 0.0208)
(-0.0327024 -0.0965778 0.0208)
(-0.0337411 -0.0981941 0.0208)
(-0.035193 -0.0994522 0.0208)
(-0.0369407 -0.10025 0.0208)
(-0.0388424 -0.100524 0.0208)
(-0.0407441 -0.10025 0.0208)
(-0.0424917 -0.0994522 0.0208)
(-0.0439437 -0.0981941 0.0208)
(-0.0449824 -0.0965778 0.0208)
(-0.0455237 -0.0947344 0.0208)
(-0.0455237 -0.0928131 0.0208)
(-0.0449824 -0.0909697 0.0208)
(-0.0439437 -0.0893535 0.0208)
(-0.0424917 -0.0880953 0.0208)
(-0.0407441 -0.0872972 0.0208)
(0.0294604 -0.0862919 0.0208)
(0.0280307 -0.0885672 0.0208)
(0.044049 -0.0829621 0.0208)
(0.0415126 -0.0820746 0.0208)
(0.0361721 -0.0820746 0.0208)
(0.0336358 -0.0829621 0.0208)
(0.0313605 -0.0843918 0.0208)
(0.0271432 -0.0911035 0.0208)
(0.0268424 -0.0937738 0.0208)
(0.0271432 -0.096444 0.0208)
(0.0280307 -0.0989804 0.0208)
(0.0482243 -0.101256 0.0208)
(0.049654 -0.0989804 0.0208)
(0.0463242 -0.0843918 0.0208)
(0.0294604 -0.101256 0.0208)
(0.0336358 -0.104585 0.0208)
(0.0361721 -0.105473 0.0208)
(0.0463242 -0.103156 0.0208)
(0.0505415 -0.096444 0.0208)
(0.0508424 -0.0937738 0.0208)
(0.0505415 -0.0911035 0.0208)
(0.049654 -0.0885672 0.0208)
(0.0388424 -0.0817738 0.0208)
(0.0313605 -0.103156 0.0208)
(0.0482243 -0.0862919 0.0208)
(0.0388424 -0.105774 0.0208)
(0.0415126 -0.105473 0.0208)
(0.044049 -0.104585 0.0208)
(-0.0482243 0.101256 0.0208)
(-0.049654 0.0989804 0.0208)
(-0.0463242 0.103156 0.0208)
(-0.0505415 0.096444 0.0208)
(-0.0508424 0.0937738 0.0208)
(-0.0505415 0.0911035 0.0208)
(-0.044049 0.0829621 0.0208)
(-0.0415126 0.0820746 0.0208)
(-0.049654 0.0885672 0.0208)
(-0.0463242 0.0843918 0.0208)
(-0.0482243 0.0862919 0.0208)
(-0.0388424 0.0817738 0.0208)
(-0.0361721 0.0820746 0.0208)
(-0.0336358 0.0829621 0.0208)
(-0.0313605 0.0843918 0.0208)
(-0.0294604 0.0862919 0.0208)
(-0.0280307 0.0885672 0.0208)
(-0.0271432 0.0911035 0.0208)
(-0.0268424 0.0937738 0.0208)
(-0.0336358 0.104585 0.0208)
(-0.0361721 0.105473 0.0208)
(-0.0415126 0.105473 0.0208)
(-0.044049 0.104585 0.0208)
(-0.0271432 0.096444 0.0208)
(-0.0280307 0.0989804 0.0208)
(-0.0313605 0.103156 0.0208)
(-0.0388424 0.105774 0.0208)
(-0.0294604 0.101256 0.0208)
(-0.0937738 0.0320924 0.0208)
(-0.0918721 0.0323658 0.0208)
(-0.0901245 0.0331639 0.0208)
(-0.0886725 0.0344221 0.0208)
(-0.0876338 0.0360383 0.0208)
(-0.0870925 0.0378817 0.0208)
(-0.0870925 0.039803 0.0208)
(-0.0876338 0.0416464 0.0208)
(-0.0886725 0.0432627 0.0208)
(-0.0901245 0.0445208 0.0208)
(-0.0918721 0.0453189 0.0208)
(-0.0937738 0.0455924 0.0208)
(-0.0956755 0.0453189 0.0208)
(-0.0974231 0.0445208 0.0208)
(-0.0988751 0.0432627 0.0208)
(-0.0999138 0.0416464 0.0208)
(-0.100455 0.039803 0.0208)
(-0.100455 0.0378817 0.0208)
(-0.0999138 0.0360383 0.0208)
(-0.0988751 0.0344221 0.0208)
(-0.0974231 0.0331639 0.0208)
(-0.0956755 0.0323658 0.0208)
(-0.0911094 0.0271688 0.0208)
(-0.0885785 0.0280544 0.0208)
(-0.0863082 0.0294809 0.0208)
(-0.0844123 0.0313768 0.0208)
(-0.0885785 0.0496304 0.0208)
(-0.0911094 0.050516 0.0208)
(-0.103135 0.0463079 0.0208)
(-0.104562 0.0440376 0.0208)
(-0.105748 0.0388424 0.0208)
(-0.105447 0.0361779 0.0208)
(-0.098969 0.0280544 0.0208)
(-0.0964382 0.0271688 0.0208)
(-0.0863082 0.0482039 0.0208)
(-0.0964382 0.050516 0.0208)
(-0.098969 0.0496304 0.0208)
(-0.101239 0.0482039 0.0208)
(-0.105447 0.0415068 0.0208)
(-0.104562 0.0336471 0.0208)
(-0.101239 0.0294809 0.0208)
(-0.0937738 0.0268686 0.0208)
(-0.0937738 0.0508162 0.0208)
(-0.103135 0.0313768 0.0208)
(-0.0829858 0.0336471 0.0208)
(-0.0818 0.0388424 0.0208)
(-0.0821002 0.0415068 0.0208)
(-0.0829858 0.0440376 0.0208)
(-0.0821002 0.0361779 0.0208)
(-0.0844123 0.0463079 0.0208)
(0.0294604 0.101256 0.0208)
(0.0280307 0.0989804 0.0208)
(0.0313605 0.103156 0.0208)
(0.0271432 0.096444 0.0208)
(0.0336358 0.0829621 0.0208)
(0.0361721 0.0820746 0.0208)
(0.0268424 0.0937738 0.0208)
(0.0271432 0.0911035 0.0208)
(0.0280307 0.0885672 0.0208)
(0.0313605 0.0843918 0.0208)
(0.0294604 0.0862919 0.0208)
(0.0388424 0.0817738 0.0208)
(0.0415126 0.0820746 0.0208)
(0.044049 0.0829621 0.0208)
(0.0463242 0.0843918 0.0208)
(0.0482243 0.0862919 0.0208)
(0.049654 0.0885672 0.0208)
(0.0508424 0.0937738 0.0208)
(0.0505415 0.096444 0.0208)
(0.0505415 0.0911035 0.0208)
(0.044049 0.104585 0.0208)
(0.0415126 0.105473 0.0208)
(0.0361721 0.105473 0.0208)
(0.0336358 0.104585 0.0208)
(0.049654 0.0989804 0.0208)
(0.0463242 0.103156 0.0208)
(0.0388424 0.105774 0.0208)
(0.0482243 0.101256 0.0208)
(0.0937738 0.0320924 0.0208)
(0.0956755 0.0323658 0.0208)
(0.0974231 0.0331639 0.0208)
(0.0988751 0.0344221 0.0208)
(0.0999138 0.0360383 0.0208)
(0.100455 0.0378817 0.0208)
(0.100455 0.039803 0.0208)
(0.0999138 0.0416464 0.0208)
(0.0988751 0.0432627 0.0208)
(0.0974231 0.0445208 0.0208)
(0.0956755 0.0453189 0.0208)
(0.0937738 0.0455924 0.0208)
(0.0918721 0.0453189 0.0208)
(0.0901245 0.0445208 0.0208)
(0.0886725 0.0432627 0.0208)
(0.0876338 0.0416464 0.0208)
(0.0870925 0.039803 0.0208)
(0.0870925 0.0378817 0.0208)
(0.0876338 0.0360383 0.0208)
(0.0886725 0.0344221 0.0208)
(0.0901245 0.0331639 0.0208)
(0.0918721 0.0323658 0.0208)
(0.0964382 0.0271688 0.0208)
(0.098969 0.0280544 0.0208)
(0.101239 0.0294809 0.0208)
(0.103135 0.0313768 0.0208)
(0.098969 0.0496304 0.0208)
(0.0964382 0.050516 0.0208)
(0.0844123 0.0463079 0.0208)
(0.0829858 0.0440376 0.0208)
(0.0818 0.0388424 0.0208)
(0.0821002 0.0361779 0.0208)
(0.0885785 0.0280544 0.0208)
(0.0911094 0.0271688 0.0208)
(0.101239 0.0482039 0.0208)
(0.0911094 0.050516 0.0208)
(0.0885785 0.0496304 0.0208)
(0.0863082 0.0482039 0.0208)
(0.0821002 0.0415068 0.0208)
(0.0829858 0.0336471 0.0208)
(0.0863082 0.0294809 0.0208)
(0.0937738 0.0268686 0.0208)
(0.0937738 0.0508162 0.0208)
(0.0844123 0.0313768 0.0208)
(0.104562 0.0336471 0.0208)
(0.105748 0.0388424 0.0208)
(0.105447 0.0415068 0.0208)
(0.104562 0.0440376 0.0208)
(0.105447 0.0361779 0.0208)
(0.103135 0.0463079 0.0208)
(-0.0482243 -0.0862919 0.0208)
(-0.049654 -0.0885672 0.0208)
(-0.0508424 -0.0937738 0.0208)
(-0.0505415 -0.096444 0.0208)
(-0.0336358 -0.0829621 0.0208)
(-0.0361721 -0.0820746 0.0208)
(-0.0415126 -0.0820746 0.0208)
(-0.044049 -0.0829621 0.0208)
(-0.0463242 -0.0843918 0.0208)
(-0.0505415 -0.0911035 0.0208)
(-0.049654 -0.0989804 0.0208)
(-0.0294604 -0.101256 0.0208)
(-0.0280307 -0.0989804 0.0208)
(-0.0313605 -0.0843918 0.0208)
(-0.0482243 -0.101256 0.0208)
(-0.044049 -0.104585 0.0208)
(-0.0415126 -0.105473 0.0208)
(-0.0313605 -0.103156 0.0208)
(-0.0271432 -0.096444 0.0208)
(-0.0271432 -0.0911035 0.0208)
(-0.0280307 -0.0885672 0.0208)
(-0.0388424 -0.0817738 0.0208)
(-0.0463242 -0.103156 0.0208)
(-0.0268424 -0.0937738 0.0208)
(-0.0294604 -0.0862919 0.0208)
(-0.0388424 -0.105774 0.0208)
(-0.0361721 -0.105473 0.0208)
(-0.0336358 -0.104585 0.0208)
(-0.0937738 -0.0320924 0.0208)
(-0.0956755 -0.0323658 0.0208)
(-0.0974231 -0.0331639 0.0208)
(-0.0988751 -0.0344221 0.0208)
(-0.0999138 -0.0360383 0.0208)
(-0.100455 -0.0378817 0.0208)
(-0.100455 -0.039803 0.0208)
(-0.0999138 -0.0416464 0.0208)
(-0.0988751 -0.0432627 0.0208)
(-0.0974231 -0.0445208 0.0208)
(-0.0956755 -0.0453189 0.0208)
(-0.0937738 -0.0455924 0.0208)
(-0.0918721 -0.0453189 0.0208)
(-0.0901245 -0.0445208 0.0208)
(-0.0886725 -0.0432627 0.0208)
(-0.0876338 -0.0416464 0.0208)
(-0.0870925 -0.039803 0.0208)
(-0.0870925 -0.0378817 0.0208)
(-0.0876338 -0.0360383 0.0208)
(-0.0886725 -0.0344221 0.0208)
(-0.0901245 -0.0331639 0.0208)
(-0.0918721 -0.0323658 0.0208)
(-0.0911094 -0.050516 0.0208)
(-0.0885785 -0.0496304 0.0208)
(-0.0863082 -0.0482039 0.0208)
(-0.0844123 -0.0463079 0.0208)
(-0.103135 -0.0313768 0.0208)
(-0.104562 -0.0336471 0.0208)
(-0.105748 -0.0388424 0.0208)
(-0.105447 -0.0415068 0.0208)
(-0.098969 -0.0496304 0.0208)
(-0.0964382 -0.050516 0.0208)
(-0.0964382 -0.0271688 0.0208)
(-0.098969 -0.0280544 0.0208)
(-0.101239 -0.0294809 0.0208)
(-0.105447 -0.0361779 0.0208)
(-0.104562 -0.0440376 0.0208)
(-0.101239 -0.0482039 0.0208)
(-0.0937738 -0.0508162 0.0208)
(-0.103135 -0.0463079 0.0208)
(-0.0885785 -0.0280544 0.0208)
(-0.0911094 -0.0271688 0.0208)
(-0.0937738 -0.0268686 0.0208)
(-0.0829858 -0.0440376 0.0208)
(-0.0818 -0.0388424 0.0208)
(-0.0821002 -0.0361779 0.0208)
(-0.0829858 -0.0336471 0.0208)
(-0.0863082 -0.0294809 0.0208)
(-0.0821002 -0.0415068 0.0208)
(-0.0844123 -0.0313768 0.0208)
(0.0937738 -0.0320924 0.0208)
(0.0918721 -0.0323658 0.0208)
(0.0901245 -0.0331639 0.0208)
(0.0886725 -0.0344221 0.0208)
(0.0876338 -0.0360383 0.0208)
(0.0870925 -0.0378817 0.0208)
(0.0870925 -0.039803 0.0208)
(0.0876338 -0.0416464 0.0208)
(0.0886725 -0.0432627 0.0208)
(0.0901245 -0.0445208 0.0208)
(0.0918721 -0.0453189 0.0208)
(0.0937738 -0.0455924 0.0208)
(0.0956755 -0.0453189 0.0208)
(0.0974231 -0.0445208 0.0208)
(0.0988751 -0.0432627 0.0208)
(0.0999138 -0.0416464 0.0208)
(0.100455 -0.039803 0.0208)
(0.100455 -0.0378817 0.0208)
(0.0999138 -0.0360383 0.0208)
(0.0988751 -0.0344221 0.0208)
(0.0974231 -0.0331639 0.0208)
(0.0956755 -0.0323658 0.0208)
(0.0964382 -0.050516 0.0208)
(0.098969 -0.0496304 0.0208)
(0.101239 -0.0482039 0.0208)
(0.103135 -0.0463079 0.0208)
(0.0844123 -0.0313768 0.0208)
(0.0829858 -0.0336471 0.0208)
(0.0818 -0.0388424 0.0208)
(0.0821002 -0.0415068 0.0208)
(0.0885785 -0.0496304 0.0208)
(0.0911094 -0.050516 0.0208)
(0.0911094 -0.0271688 0.0208)
(0.0885785 -0.0280544 0.0208)
(0.0863082 -0.0294809 0.0208)
(0.0821002 -0.0361779 0.0208)
(0.0829858 -0.0440376 0.0208)
(0.0863082 -0.0482039 0.0208)
(0.0937738 -0.0508162 0.0208)
(0.0844123 -0.0463079 0.0208)
(0.098969 -0.0280544 0.0208)
(0.0964382 -0.0271688 0.0208)
(0.0937738 -0.0268686 0.0208)
(0.104562 -0.0440376 0.0208)
(0.105748 -0.0388424 0.0208)
(0.105447 -0.0361779 0.0208)
(0.104562 -0.0336471 0.0208)
(0.101239 -0.0294809 0.0208)
(0.105447 -0.0415068 0.0208)
(0.103135 -0.0313768 0.0208)
(-0.0610043 -0.00309093 0.049)
(-0.06 -0.00325 0.049)
(-0.0619103 -0.00262931 0.049)
(-0.0626293 -0.0019103 0.049)
(-0.0630909 -0.00100431 0.049)
(-0.06325 -1.24577e-09 0.049)
(-0.0630909 0.00100431 0.049)
(-0.0626293 0.0019103 0.049)
(-0.0619103 0.00262931 0.049)
(-0.0610043 0.00309093 0.049)
(-0.06 0.00325 0.049)
(-0.0589957 0.00309093 0.049)
(-0.0580897 0.00262931 0.049)
(-0.0573707 0.0019103 0.049)
(-0.0569091 0.00100431 0.049)
(-0.05675 -6.77526e-10 0.049)
(-0.0569091 -0.00100431 0.049)
(-0.0573707 -0.0019103 0.049)
(-0.0580897 -0.00262931 0.049)
(-0.0589957 -0.00309093 0.049)
(-0.0645396 -0.00499923 0.0617)
(-0.0642038 -0.00532228 0.0617)
(-0.0650589 -0.00439547 0.0617)
(-0.0648525 -0.00465314 0.0617)
(-0.0655688 -0.00361909 0.0617)
(-0.0659663 -0.00277755 0.0617)
(-0.0661402 -0.00226801 0.0617)
(-0.0660695 -0.0024922 0.0617)
(-0.0662995 -0.00160386 0.0617)
(-0.0664025 -0.000688706 0.0617)
(-0.0663412 0.000486934 0.0617)
(-0.0664078 -0.000416789 0.0617)
(-0.0663043 0.000711509 0.0617)
(-0.0660727 0.00160648 0.0617)
(-0.0661454 0.00137732 0.0617)
(-0.0658761 0.00211337 0.0617)
(-0.0652603 0.00320157 0.0617)
(-0.0657252 0.00243218 0.0617)
(-0.0651149 0.00339839 0.0617)
(-0.0645271 0.00405634 0.0617)
(-0.0641577 0.00438497 0.0617)
(-0.0637052 0.00472137 0.0617)
(-0.0638451 0.00462432 0.0617)
(-0.0629826 0.00513827 0.0617)
(-0.0621177 0.00547972 0.0617)
(-0.0629386 0.00515955 0.0617)
(-0.0616864 0.00559365 0.0617)
(-0.0619178 0.00553698 0.0617)
(-0.061071 0.00569614 0.0617)
(-0.0590103 0.00564404 0.061653)
(-0.0574736 -0.00506789 0.0584617)
(-0.0567718 -0.00465212 0.0584938)
(-0.0640527 0.0039552 0.0564203)
(-0.064578 0.00333244 0.0564523)
(-0.057733 0.00518945 0.0547376)
(-0.0584928 0.00545731 0.0547693)
(-0.065471 0.00145708 0.04948)
(-0.0656227 0.000662987 0.0495118)
(-0.0656093 -0.000767414 0.0580354)
(-0.0654431 -0.00155814 0.0580677)
(-0.0650091 0.00264108 0.056485)
(-0.0551317 0.0028919 0.0531863)
(-0.0555971 0.00356098 0.0532189)
(-0.0656612 -0.000144353 0.0495441)
(-0.0552326 0.00309965 0.0617)
(-0.0555927 0.00356699 0.0617)
(-0.056307 0.00428135 0.0617)
(-0.0566314 0.00453708 0.0617)
(-0.0560157 0.00401829 0.0617)
(-0.0562123 0.00419958 0.0617)
(-0.0570228 0.00480166 0.0617)
(-0.0571247 0.00486353 0.0617)
(-0.0571602 0.00488442 0.0617)
(-0.0577225 0.00517441 0.0617)
(-0.0589247 0.00557123 0.0617)
(-0.0589767 0.0055824 0.0617)
(-0.0583127 0.00540387 0.0617)
(-0.0584939 0.00546054 0.0617)
(-0.0577506 0.00518701 0.0617)
(-0.0579146 0.00525698 0.0617)
(-0.0580226 0.00530002 0.0617)
(-0.0595487 0.00567638 0.0617)
(-0.0599085 0.00571045 0.0617)
(-0.0557949 0.00379414 0.0617)
(-0.0543315 0.000839681 0.0616383)
(-0.0545135 0.00180389 0.0617)
(-0.0661512 -0.00289881 0.0622)
(-0.0650776 -0.00452308 0.0622)
(-0.0667205 -0.00103689 0.0622)
(-0.0667388 0.000910037 0.0622)
(-0.0668 -4.02145e-10 0.0622)
(-0.0662047 0.00278236 0.0622)
(-0.0651619 0.00442658 0.0622)
(-0.0636959 0.00570789 0.0622)
(-0.061927 0.00652126 0.0622)
(-0.06 0.0068 0.0622)
(-0.0618037 -0.00655642 0.0622)
(-0.06 -0.0068 0.0622)
(-0.0635877 -0.00577654 0.0622)
(-0.0580842 0.00652455 0.0622)
(-0.0563236 0.00572052 0.0622)
(-0.0548609 0.00445305 0.0622)
(-0.0538145 0.00282482 0.0622)
(-0.0532692 0.000967742 0.0622)
(-0.0532692 -0.00096774 0.0622)
(-0.0538145 -0.00282482 0.0622)
(-0.0548609 -0.00445305 0.0622)
(-0.0563236 -0.00572052 0.0622)
(-0.0580842 -0.00652455 0.0622)
(-0.0550103 0.0103611 0.0622)
(-0.057441 0.0112117 0.0622)
(-0.0528299 0.00899106 0.0622)
(-0.062559 -0.0112117 0.0622)
(-0.06 -0.0115 0.0622)
(-0.0485 1.19769e-09 0.0622)
(-0.0487883 0.00255899 0.0622)
(-0.0496389 0.00498966 0.0622)
(-0.06 0.0115 0.0622)
(-0.0715 -8.13032e-10 0.0622)
(-0.0712117 -0.00255899 0.0622)
(-0.0649897 -0.0103611 0.0622)
(-0.057441 -0.0112117 0.0622)
(-0.0550103 -0.0103611 0.0622)
(-0.0528299 -0.00899106 0.0622)
(-0.0510089 -0.00717013 0.0622)
(-0.0487883 -0.00255899 0.0622)
(-0.0510089 0.00717013 0.0622)
(-0.0496389 -0.00498966 0.0622)
(-0.0712117 0.00255899 0.0622)
(-0.0703611 -0.00498966 0.0622)
(-0.062559 0.0112117 0.0622)
(-0.0649897 0.0103611 0.0622)
(-0.0671701 0.00899106 0.0622)
(-0.0689911 0.00717013 0.0622)
(-0.0703611 0.00498966 0.0622)
(-0.0689911 -0.00717013 0.0622)
(-0.0671701 -0.00899106 0.0622)
(0.0173184 -0.0220036 0.045)
(0.0277149 -0.00399634 0.045)
(0.0283024 -0.00273844 0.045)
(0.0287866 6.45063e-09 0.045)
(0.0287323 0.000929557 0.045)
(0.0283024 0.00273846 0.045)
(0.0277149 0.00399636 0.045)
(0.0287323 -0.000929545 0.045)
(0.0103986 -0.026 0.045)
(0.0117814 -0.0258795 0.045)
(0.0135623 -0.0253471 0.045)
(0.0143933 -0.0249299 0.045)
(0.0151718 -0.0244176 0.045)
(0.016523 -0.0231411 0.045)
(-0.0103986 -0.026 0.045)