/*--------------------------------*- C++ -*----------------------------------*\
  =========                 |
  \\      /  F ield         | OpenFOAM: The Open Source CFD Toolbox
   \\    /   O peration     | Website:  https://openfoam.org
    \\  /    A nd           | Version:  8
     \\/     M anipulation  |
\*---------------------------------------------------------------------------*/
FoamFile
{
    version     2.0;
    format      ascii;
    class       featureEdgeMesh;
    location    "constant/triSurface";
    object      pingwan.eMesh;
}
// * * * * * * * * * * * * * * * * * * * * * * * * * * * * * * * * * * * * * //


// points:

1893
(
(0.0856306 -0.0775091 -0.00350001)
(0.0857361 -0.0773923 -0.000500007)
(0.0775091 -0.0856306 -0.00350001)
(0.0773923 -0.0857361 -0.000500008)
(-0.001 0.0759934 -0.00628581)
(-0.001 -0.0759934 -0.00628583)
(0.001 -0.0759934 -0.00628583)
(0.001 0.0759934 -0.00628581)
(0.1155 4.80825e-10 -0.0055)
(0.115192 0.00843096 -0.0055)
(0.114269 0.0168169 -0.0055)
(0.112737 0.0251132 -0.0055)
(0.110603 0.0332754 -0.0055)
(0.107879 0.0412602 -0.0055)
(0.104579 0.0490247 -0.0055)
(0.100722 0.0565278 -0.00549999)
(0.0963268 0.0637292 -0.00549999)
(0.0914178 0.0705906 -0.00549999)
(0.0860212 0.0770753 -0.00549999)
(0.0801656 0.0831488 -0.00549999)
(0.0738822 0.0887787 -0.00549999)
(0.0672047 0.093935 -0.00549999)
(0.0601686 0.09859 -0.00549999)
(0.0528115 0.102719 -0.00549999)
(0.0451726 0.1063 -0.00549999)
(0.0372927 0.109314 -0.00549999)
(0.0292138 0.111744 -0.00549999)
(0.0209791 0.113579 -0.00549999)
(0.0126324 0.114807 -0.00549999)
(0.00421829 0.115423 -0.00549999)
(-0.00421829 0.115423 -0.00049999)
(0 0.1155 -0.00049999)
(-0.00421829 0.115423 -0.00549999)
(-0.0126324 0.114807 -0.00549999)
(-0.0209791 0.113579 -0.00549999)
(-0.0292138 0.111744 -0.00549999)
(-0.0372927 0.109314 -0.00549999)
(-0.0451726 0.1063 -0.00549999)
(-0.0528115 0.102719 -0.00549999)
(-0.0601686 0.09859 -0.00549999)
(-0.0672047 0.093935 -0.00549999)
(-0.0738822 0.0887787 -0.00549999)
(-0.0801656 0.0831488 -0.00549999)
(-0.0860212 0.0770753 -0.00549999)
(-0.0914178 0.0705906 -0.00549999)
(-0.0963268 0.0637292 -0.00549999)
(-0.100722 0.0565278 -0.00549999)
(-0.104579 0.0490247 -0.0055)
(-0.107879 0.0412602 -0.0055)
(-0.110603 0.0332754 -0.0055)
(-0.112737 0.0251132 -0.0055)
(-0.114269 0.0168169 -0.0055)
(-0.115192 0.00843096 -0.0055)
(-0.1155 4.80825e-10 -0.0055)
(-0.1155 4.79066e-11 -0.0005)
(-0.115192 0.00843096 -0.000499999)
(-0.114269 0.0168169 -0.000499999)
(-0.112737 0.0251132 -0.000499998)
(-0.110603 0.0332754 -0.000499997)
(-0.107879 0.0412602 -0.000499996)
(-0.104579 0.0490247 -0.000499996)
(-0.100722 0.0565278 -0.000499995)
(-0.0963268 0.0637292 -0.000499994)
(-0.0914178 0.0705906 -0.000499994)
(-0.0860212 0.0770753 -0.000499993)
(-0.0801656 0.0831488 -0.000499993)
(-0.0738822 0.0887787 -0.000499992)
(-0.0672047 0.093935 -0.000499992)
(-0.0601686 0.09859 -0.000499991)
(-0.0528115 0.102719 -0.000499991)
(-0.0451726 0.1063 -0.000499991)
(-0.0372927 0.109314 -0.00049999)
(-0.0292138 0.111744 -0.00049999)
(-0.0209791 0.113579 -0.00049999)
(-0.0126324 0.114807 -0.00049999)
(0.00421829 0.115423 -0.00049999)
(0.0126324 0.114807 -0.00049999)
(0.0209791 0.113579 -0.00049999)
(0.0292138 0.111744 -0.00049999)
(0.0372927 0.109314 -0.00049999)
(0.0451726 0.1063 -0.000499991)
(0.0528115 0.102719 -0.000499991)
(0.0601686 0.09859 -0.000499991)
(0.0672047 0.093935 -0.000499992)
(0.0738822 0.0887787 -0.000499992)
(0.0801656 0.0831488 -0.000499993)
(0.0860212 0.0770753 -0.000499993)
(0.0914178 0.0705906 -0.000499994)
(0.0963268 0.0637292 -0.000499994)
(0.100722 0.0565278 -0.000499995)
(0.104579 0.0490247 -0.000499996)
(0.107879 0.0412602 -0.000499996)
(0.110603 0.0332754 -0.000499997)
(0.112737 0.0251132 -0.000499998)
(0.114269 0.0168169 -0.000499999)
(0.115192 0.00843096 -0.000499999)
(0.1155 4.37114e-11 -0.0005)
(-0.115192 -0.00843096 -0.0055)
(-0.114269 -0.0168169 -0.0055)
(-0.112737 -0.0251132 -0.0055)
(-0.110603 -0.0332754 -0.0055)
(-0.107879 -0.0412602 -0.0055)
(-0.104579 -0.0490247 -0.0055)
(-0.100722 -0.0565278 -0.00550001)
(-0.0963268 -0.0637292 -0.00550001)
(-0.0914178 -0.0705906 -0.00550001)
(-0.0860212 -0.0770753 -0.00550001)
(-0.0801656 -0.0831488 -0.00550001)
(-0.0738822 -0.0887787 -0.00550001)
(-0.0672047 -0.093935 -0.00550001)
(-0.0601686 -0.09859 -0.00550001)
(-0.0528115 -0.102719 -0.00550001)
(-0.0451726 -0.1063 -0.00550001)
(-0.0372927 -0.109314 -0.00550001)
(-0.0292138 -0.111744 -0.00550001)
(-0.0209791 -0.113579 -0.00550001)
(-0.0126324 -0.114807 -0.00550001)
(-0.00421829 -0.115423 -0.00550001)
(0.00421829 -0.115423 -0.00550001)
(0.00421829 -0.115423 -0.00050001)
(0 -0.1155 -0.00050001)
(0.0126324 -0.114807 -0.00550001)
(0.0209791 -0.113579 -0.00550001)
(0.0292138 -0.111744 -0.00550001)
(0.0372927 -0.109314 -0.00550001)
(0.0451726 -0.1063 -0.00550001)
(0.0528115 -0.102719 -0.00550001)
(0.0601686 -0.09859 -0.00550001)
(0.0672047 -0.093935 -0.00550001)
(0.0738822 -0.0887787 -0.00550001)
(0.0860212 -0.0770753 -0.00550001)
(0.0914178 -0.0705906 -0.00550001)
(0.0963268 -0.0637292 -0.00550001)
(0.100722 -0.0565278 -0.00550001)
(0.104579 -0.0490247 -0.0055)
(0.107879 -0.0412602 -0.0055)
(0.110603 -0.0332754 -0.0055)
(0.112737 -0.0251132 -0.0055)
(0.114269 -0.0168169 -0.0055)
(0.115192 -0.00843096 -0.0055)
(0.0801656 -0.0831488 -0.00550001)
(0.0860212 -0.0770753 -0.000500007)
(0.0738822 -0.0887787 -0.000500008)
(0.115192 -0.00843096 -0.000500001)
(0.114269 -0.0168169 -0.000500001)
(0.112737 -0.0251132 -0.000500002)
(0.110603 -0.0332754 -0.000500003)
(0.107879 -0.0412602 -0.000500004)
(0.104579 -0.0490247 -0.000500004)
(0.100722 -0.0565278 -0.000500005)
(0.0963268 -0.0637292 -0.000500006)
(0.0914178 -0.0705906 -0.000500006)
(0.0672047 -0.093935 -0.000500008)
(0.0601686 -0.09859 -0.000500009)
(0.0528115 -0.102719 -0.000500009)
(0.0451726 -0.1063 -0.000500009)
(0.0372927 -0.109314 -0.00050001)
(0.0292138 -0.111744 -0.00050001)
(0.0209791 -0.113579 -0.00050001)
(0.0126324 -0.114807 -0.00050001)
(-0.00421829 -0.115423 -0.00050001)
(-0.0126324 -0.114807 -0.00050001)
(-0.0209791 -0.113579 -0.00050001)
(-0.0292138 -0.111744 -0.00050001)
(-0.0372927 -0.109314 -0.00050001)
(-0.0451726 -0.1063 -0.000500009)
(-0.0528115 -0.102719 -0.000500009)
(-0.0601686 -0.09859 -0.000500009)
(-0.0672047 -0.093935 -0.000500008)
(-0.0738822 -0.0887787 -0.000500008)
(-0.0801656 -0.0831488 -0.000500007)
(-0.0860212 -0.0770753 -0.000500007)
(-0.0914178 -0.0705906 -0.000500006)
(-0.0963268 -0.0637292 -0.000500006)
(-0.100722 -0.0565278 -0.000500005)
(-0.104579 -0.0490247 -0.000500004)
(-0.107879 -0.0412602 -0.000500004)
(-0.110603 -0.0332754 -0.000500003)
(-0.112737 -0.0251132 -0.000500002)
(-0.114269 -0.0168169 -0.000500001)
(-0.115192 -0.00843096 -0.000500001)
(0.0893378 -0.0812163 -0.00350001)
(0.089449 -0.0811051 -0.000500007)
(0.0903939 -0.0878842 -0.00350001)
(0.0893378 -0.0893378 -0.00350001)
(0.0903939 -0.0826699 -0.00350001)
(0.0909492 -0.0861754 -0.00350001)
(0.0909492 -0.0843787 -0.00350001)
(0.0843787 -0.0909492 -0.00350001)
(0.0826699 -0.0903939 -0.00350001)
(0.0878842 -0.0903939 -0.00350001)
(0.0861754 -0.0909492 -0.00350001)
(0.0812163 -0.0893378 -0.00350001)
(0.0811051 -0.089449 -0.000500008)
(0.090534 -0.0825985 -0.000500007)
(0.0911044 -0.0843541 -0.000500007)
(0.0911044 -0.0862 -0.000500008)
(0.090534 -0.0879556 -0.000500008)
(0.089449 -0.089449 -0.000500008)
(0.0879556 -0.090534 -0.000500008)
(0.0862 -0.0911044 -0.000500008)
(0.0843541 -0.0911044 -0.000500008)
(0.0825985 -0.090534 -0.000500008)
(-0.0445487 -0.0919197 -0.000500008)
(-0.0436965 -0.0902471 -0.000500008)
(-0.033136 -0.0956279 -0.000500008)
(-0.0339883 -0.0973005 -0.000500009)
(-0.033136 -0.0919197 -0.000500008)
(-0.0328424 -0.0937738 -0.000500008)
(-0.0353157 -0.0889197 -0.000500008)
(-0.0339883 -0.0902471 -0.000500008)
(-0.0369883 -0.0880674 -0.000500008)
(-0.0388424 -0.0877738 -0.000500008)
(-0.0406965 -0.0994801 -0.000500009)
(-0.0423691 -0.0986279 -0.000500009)
(-0.0353157 -0.0986279 -0.000500009)
(-0.0369883 -0.0994801 -0.000500009)
(-0.0423691 -0.0889197 -0.000500008)
(-0.0406965 -0.0880674 -0.000500008)
(-0.0436965 -0.0973005 -0.000500009)
(-0.0445487 -0.0956279 -0.000500008)
(-0.0388424 -0.0997738 -0.000500009)
(-0.0448424 -0.0937738 -0.000500008)
(-0.0937738 -0.0473424 -0.000500004)
(-0.0959737 -0.0470527 -0.000500004)
(-0.0895238 -0.0314812 -0.000500003)
(-0.0877634 -0.032832 -0.000500003)
(-0.0864126 -0.0345924 -0.000500003)
(-0.0937738 -0.0303424 -0.000500003)
(-0.0915738 -0.030632 -0.000500003)
(-0.0959737 -0.030632 -0.000500003)
(-0.101135 -0.0345924 -0.000500003)
(-0.0997842 -0.032832 -0.000500003)
(-0.101984 -0.0366424 -0.000500003)
(-0.0864126 -0.0430924 -0.000500004)
(-0.0877634 -0.0448528 -0.000500004)
(-0.0855634 -0.0410423 -0.000500004)
(-0.0980238 -0.0314812 -0.000500003)
(-0.0915738 -0.0470527 -0.000500004)
(-0.0852738 -0.0388424 -0.000500003)
(-0.0895238 -0.0462036 -0.000500004)
(-0.0980238 -0.0462036 -0.000500004)
(-0.0997842 -0.0448528 -0.000500004)
(-0.0855634 -0.0366424 -0.000500003)
(-0.101135 -0.0430924 -0.000500004)
(-0.101984 -0.0410423 -0.000500004)
(-0.102274 -0.0388424 -0.000500003)
(-0.0937738 0.0473424 -0.000499996)
(-0.0915738 0.0470527 -0.000499996)
(-0.0895238 0.0462036 -0.000499996)
(-0.0959737 0.0470527 -0.000499996)
(-0.0877634 0.0448528 -0.000499996)
(-0.0937738 0.0303424 -0.000499997)
(-0.0959737 0.030632 -0.000499997)
(-0.0915738 0.030632 -0.000499997)
(-0.0852738 0.0388424 -0.000499997)
(-0.0855634 0.0366424 -0.000499997)
(-0.101984 0.0410423 -0.000499996)
(-0.101135 0.0430924 -0.000499996)
(-0.101135 0.0345924 -0.000499997)
(-0.101984 0.0366424 -0.000499997)
(-0.0895238 0.0314812 -0.000499997)
(-0.0864126 0.0345924 -0.000499997)
(-0.0877634 0.032832 -0.000499997)
(-0.0855634 0.0410423 -0.000499996)
(-0.0997842 0.0448528 -0.000499996)
(-0.0980238 0.0462036 -0.000499996)
(-0.0997842 0.032832 -0.000499997)
(-0.0980238 0.0314812 -0.000499997)
(-0.0864126 0.0430924 -0.000499996)
(-0.102274 0.0388424 -0.000499997)
(-0.033136 0.0956279 -0.000499992)
(-0.0328424 0.0937738 -0.000499992)
(-0.0353157 0.0986279 -0.000499991)
(-0.0339883 0.0973005 -0.000499992)
(-0.0423691 0.0889197 -0.000499992)
(-0.0436965 0.0902471 -0.000499992)
(-0.0353157 0.0889197 -0.000499992)
(-0.0369883 0.0880674 -0.000499992)
(-0.033136 0.0919197 -0.000499992)
(-0.0339883 0.0902471 -0.000499992)
(-0.0388424 0.0877738 -0.000499992)
(-0.0406965 0.0880674 -0.000499992)
(-0.0369883 0.0994801 -0.000499991)
(-0.0388424 0.0997738 -0.000499991)
(-0.0436965 0.0973005 -0.000499992)
(-0.0423691 0.0986279 -0.000499991)
(-0.0445487 0.0956279 -0.000499992)
(-0.0445487 0.0919197 -0.000499992)
(-0.0406965 0.0994801 -0.000499991)
(-0.0448424 0.0937738 -0.000499992)
(0.0445487 0.0919197 -0.000499992)
(0.0436965 0.0902471 -0.000499992)
(0.0423691 0.0889197 -0.000499992)
(0.0406965 0.0880674 -0.000499992)
(0.0448424 0.0937738 -0.000499992)
(0.0353157 0.0889197 -0.000499992)
(0.0339883 0.0902471 -0.000499992)
(0.033136 0.0956279 -0.000499992)
(0.0339883 0.0973005 -0.000499992)
(0.0369883 0.0880674 -0.000499992)
(0.0388424 0.0877738 -0.000499992)
(0.0445487 0.0956279 -0.000499992)
(0.0423691 0.0986279 -0.000499991)
(0.0436965 0.0973005 -0.000499992)
(0.0388424 0.0997738 -0.000499991)
(0.0406965 0.0994801 -0.000499991)
(0.0353157 0.0986279 -0.000499991)
(0.0369883 0.0994801 -0.000499991)
(0.033136 0.0919197 -0.000499992)
(0.0328424 0.0937738 -0.000499992)
(0.0937738 0.0473424 -0.000499996)
(0.0959737 0.0470527 -0.000499996)
(0.0895238 0.0314812 -0.000499997)
(0.0877634 0.032832 -0.000499997)
(0.0997842 0.032832 -0.000499997)
(0.0980238 0.0314812 -0.000499997)
(0.101135 0.0345924 -0.000499997)
(0.0915738 0.030632 -0.000499997)
(0.0959737 0.030632 -0.000499997)
(0.101984 0.0366424 -0.000499997)
(0.0864126 0.0430924 -0.000499996)
(0.0877634 0.0448528 -0.000499996)
(0.0937738 0.0303424 -0.000499997)
(0.101984 0.0410423 -0.000499996)
(0.102274 0.0388424 -0.000499997)
(0.0915738 0.0470527 -0.000499996)
(0.0864126 0.0345924 -0.000499997)
(0.0855634 0.0366424 -0.000499997)
(0.0997842 0.0448528 -0.000499996)
(0.101135 0.0430924 -0.000499996)
(0.0980238 0.0462036 -0.000499996)
(0.0895238 0.0462036 -0.000499996)
(0.0855634 0.0410423 -0.000499996)
(0.0852738 0.0388424 -0.000499997)
(0.0915738 -0.0470527 -0.000500004)
(0.0895238 -0.0462036 -0.000500004)
(0.0937738 -0.0473424 -0.000500004)
(0.0877634 -0.0448528 -0.000500004)
(0.0959737 -0.0470527 -0.000500004)
(0.101135 -0.0345924 -0.000500003)
(0.101984 -0.0366424 -0.000500003)
(0.0855634 -0.0410423 -0.000500004)
(0.0852738 -0.0388424 -0.000500003)
(0.0997842 -0.0448528 -0.000500004)
(0.0980238 -0.0462036 -0.000500004)
(0.0937738 -0.0303424 -0.000500003)
(0.0959737 -0.030632 -0.000500003)
(0.0915738 -0.030632 -0.000500003)
(0.101135 -0.0430924 -0.000500004)
(0.101984 -0.0410423 -0.000500004)
(0.102274 -0.0388424 -0.000500003)
(0.0997842 -0.032832 -0.000500003)
(0.0895238 -0.0314812 -0.000500003)
(0.0864126 -0.0345924 -0.000500003)
(0.0877634 -0.032832 -0.000500003)
(0.0864126 -0.0430924 -0.000500004)
(0.0980238 -0.0314812 -0.000500003)
(0.0855634 -0.0366424 -0.000500003)
(0.0353157 -0.0986279 -0.000500009)
(0.0339883 -0.0973005 -0.000500009)
(0.0436965 -0.0973005 -0.000500009)
(0.0423691 -0.0986279 -0.000500009)
(0.0445487 -0.0956279 -0.000500008)
(0.0406965 -0.0994801 -0.000500009)
(0.0448424 -0.0937738 -0.000500008)
(0.0423691 -0.0889197 -0.000500008)
(0.0436965 -0.0902471 -0.000500008)
(0.0388424 -0.0877738 -0.000500008)
(0.0406965 -0.0880674 -0.000500008)
(0.0353157 -0.0889197 -0.000500008)
(0.0369883 -0.0880674 -0.000500008)
(0.033136 -0.0919197 -0.000500008)
(0.0339883 -0.0902471 -0.000500008)
(0.0369883 -0.0994801 -0.000500009)
(0.0388424 -0.0997738 -0.000500009)
(0.0445487 -0.0919197 -0.000500008)
(0.033136 -0.0956279 -0.000500008)
(0.0328424 -0.0937738 -0.000500008)
(0.0445487 0.0956279 -0.00549999)
(0.0448424 0.0937738 -0.00549999)
(0.0436965 0.0973005 -0.00549999)
(0.0423691 0.0986279 -0.00549999)
(0.0406965 0.0994801 -0.00549999)
(0.0388424 0.0997738 -0.00549999)
(0.0369883 0.0994801 -0.00549999)
(0.0353157 0.0986279 -0.00549999)
(0.0339883 0.0973005 -0.00549999)
(0.033136 0.0956279 -0.00549999)
(0.0328424 0.0937738 -0.00549999)
(0.033136 0.0919197 -0.00549999)
(0.0339883 0.0902471 -0.00549999)
(0.0353157 0.0889197 -0.00549999)
(0.0369883 0.0880674 -0.00549999)
(0.0388424 0.0877738 -0.00549999)
(0.0406965 0.0880674 -0.00549999)
(0.0423691 0.0889197 -0.00549999)
(0.0436965 0.0902471 -0.00549999)
(0.0445487 0.0919197 -0.00549999)
(0.101984 0.0410423 -0.0055)
(0.102274 0.0388424 -0.0055)
(0.101135 0.0430924 -0.0055)
(0.0997842 0.0448528 -0.0055)
(0.0980238 0.0462036 -0.0055)
(0.0959737 0.0470527 -0.0055)
(0.0937738 0.0473424 -0.0055)
(0.0915738 0.0470527 -0.0055)
(0.0895238 0.0462036 -0.0055)
(0.0877634 0.0448528 -0.0055)
(0.0864126 0.0430924 -0.0055)
(0.0855634 0.0410423 -0.0055)
(0.0852738 0.0388424 -0.0055)
(0.0855634 0.0366424 -0.0055)
(0.0864126 0.0345924 -0.0055)
(0.0877634 0.032832 -0.0055)
(0.0895238 0.0314812 -0.0055)
(0.0915738 0.030632 -0.0055)
(0.0937738 0.0303424 -0.0055)
(0.0959737 0.030632 -0.0055)
(0.0980238 0.0314812 -0.0055)
(0.0997842 0.032832 -0.0055)
(0.101135 0.0345924 -0.0055)
(0.101984 0.0366424 -0.0055)
(0.0445487 -0.0919197 -0.00550001)
(0.0448424 -0.0937738 -0.00550001)
(0.0436965 -0.0902471 -0.00550001)
(0.0423691 -0.0889197 -0.00550001)
(0.0406965 -0.0880674 -0.00550001)
(0.0388424 -0.0877738 -0.00550001)
(0.0369883 -0.0880674 -0.00550001)
(0.0353157 -0.0889197 -0.00550001)
(0.0339883 -0.0902471 -0.00550001)
(0.033136 -0.0919197 -0.00550001)
(0.0328424 -0.0937738 -0.00550001)
(0.033136 -0.0956279 -0.00550001)
(0.0339883 -0.0973005 -0.00550001)
(0.0353157 -0.0986279 -0.00550001)
(0.0369883 -0.0994801 -0.00550001)
(0.0388424 -0.0997738 -0.00550001)
(0.0406965 -0.0994801 -0.00550001)
(0.0423691 -0.0986279 -0.00550001)
(0.0436965 -0.0973005 -0.00550001)
(0.0445487 -0.0956279 -0.00550001)
(0.101984 -0.0366424 -0.0055)
(0.102274 -0.0388424 -0.0055)
(0.101135 -0.0345924 -0.0055)
(0.0997842 -0.032832 -0.0055)
(0.0980238 -0.0314812 -0.0055)
(0.0959737 -0.030632 -0.0055)
(0.0937738 -0.0303424 -0.0055)
(0.0915738 -0.030632 -0.0055)
(0.0895238 -0.0314812 -0.0055)
(0.0877634 -0.032832 -0.0055)
(0.0864126 -0.0345924 -0.0055)
(0.0855634 -0.0366424 -0.0055)
(0.0852738 -0.0388424 -0.0055)
(0.0855634 -0.0410423 -0.0055)
(0.0864126 -0.0430924 -0.0055)
(0.0877634 -0.0448528 -0.0055)
(0.0895238 -0.0462036 -0.0055)
(0.0915738 -0.0470527 -0.0055)
(0.0937738 -0.0473424 -0.0055)
(0.0959737 -0.0470527 -0.0055)
(0.0980238 -0.0462036 -0.0055)
(0.0997842 -0.0448528 -0.0055)
(0.101135 -0.0430924 -0.0055)
(0.101984 -0.0410423 -0.0055)
(-0.0445487 0.0919197 -0.00549999)
(-0.0448424 0.0937738 -0.00549999)
(-0.0436965 0.0902471 -0.00549999)
(-0.0423691 0.0889197 -0.00549999)
(-0.0406965 0.0880674 -0.00549999)
(-0.0388424 0.0877738 -0.00549999)
(-0.0369883 0.0880674 -0.00549999)
(-0.0353157 0.0889197 -0.00549999)
(-0.0339883 0.0902471 -0.00549999)
(-0.033136 0.0919197 -0.00549999)
(-0.0328424 0.0937738 -0.00549999)
(-0.033136 0.0956279 -0.00549999)
(-0.0339883 0.0973005 -0.00549999)
(-0.0353157 0.0986279 -0.00549999)
(-0.0369883 0.0994801 -0.00549999)
(-0.0388424 0.0997738 -0.00549999)
(-0.0406965 0.0994801 -0.00549999)
(-0.0423691 0.0986279 -0.00549999)
(-0.0436965 0.0973005 -0.00549999)
(-0.0445487 0.0956279 -0.00549999)
(-0.101984 0.0366424 -0.0055)
(-0.102274 0.0388424 -0.0055)
(-0.101135 0.0345924 -0.0055)
(-0.0997842 0.032832 -0.0055)
(-0.0980238 0.0314812 -0.0055)
(-0.0959737 0.030632 -0.0055)
(-0.0937738 0.0303424 -0.0055)
(-0.0915738 0.030632 -0.0055)
(-0.0895238 0.0314812 -0.0055)
(-0.0877634 0.032832 -0.0055)
(-0.0864126 0.0345924 -0.0055)
(-0.0855634 0.0366424 -0.0055)
(-0.0852738 0.0388424 -0.0055)
(-0.0855634 0.0410423 -0.0055)
(-0.0864126 0.0430924 -0.0055)
(-0.0877634 0.0448528 -0.0055)
(-0.0895238 0.0462036 -0.0055)
(-0.0915738 0.0470527 -0.0055)
(-0.0937738 0.0473424 -0.0055)
(-0.0959737 0.0470527 -0.0055)
(-0.0980238 0.0462036 -0.0055)
(-0.0997842 0.0448528 -0.0055)
(-0.101135 0.0430924 -0.0055)
(-0.101984 0.0410423 -0.0055)
(-0.0445487 -0.0956279 -0.00550001)
(-0.0448424 -0.0937738 -0.00550001)
(-0.0436965 -0.0973005 -0.00550001)
(-0.0423691 -0.0986279 -0.00550001)
(-0.0406965 -0.0994801 -0.00550001)
(-0.0388424 -0.0997738 -0.00550001)
(-0.0369883 -0.0994801 -0.00550001)
(-0.0353157 -0.0986279 -0.00550001)
(-0.0339883 -0.0973005 -0.00550001)
(-0.033136 -0.0956279 -0.00550001)
(-0.0328424 -0.0937738 -0.00550001)
(-0.033136 -0.0919197 -0.00550001)
(-0.0339883 -0.0902471 -0.00550001)
(-0.0353157 -0.0889197 -0.00550001)
(-0.0369883 -0.0880674 -0.00550001)
(-0.0388424 -0.0877738 -0.00550001)
(-0.0406965 -0.0880674 -0.00550001)
(-0.0423691 -0.0889197 -0.00550001)
(-0.0436965 -0.0902471 -0.00550001)
(-0.0445487 -0.0919197 -0.00550001)
(-0.101984 -0.0410423 -0.0055)
(-0.102274 -0.0388424 -0.0055)
(-0.101135 -0.0430924 -0.0055)
(-0.0997842 -0.0448528 -0.0055)
(-0.0980238 -0.0462036 -0.0055)
(-0.0959737 -0.0470527 -0.0055)
(-0.0937738 -0.0473424 -0.0055)
(-0.0915738 -0.0470527 -0.0055)
(-0.0895238 -0.0462036 -0.0055)
(-0.0877634 -0.0448528 -0.0055)
(-0.0864126 -0.0430924 -0.0055)
(-0.0855634 -0.0410423 -0.0055)
(-0.0852738 -0.0388424 -0.0055)
(-0.0855634 -0.0366424 -0.0055)
(-0.0864126 -0.0345924 -0.0055)
(-0.0877634 -0.032832 -0.0055)
(-0.0895238 -0.0314812 -0.0055)
(-0.0915738 -0.030632 -0.0055)
(-0.0937738 -0.0303424 -0.0055)
(-0.0959737 -0.030632 -0.0055)
(-0.0980238 -0.0314812 -0.0055)
(-0.0997842 -0.032832 -0.0055)
(-0.101135 -0.0345924 -0.0055)
(-0.101984 -0.0366424 -0.0055)
(-0.0170841 0.0740549 -0.00026863)
(-0.0135703 0.0747786 -0.000268629)
(-0.0217857 0.0728106 -0.00026863)
(-0.0202188 0.0732612 -0.00026863)
(-0.0309022 0.0694338 -0.00026863)
(-0.0267045 0.0711538 -0.00026863)
(-0.0352799 0.0673151 -0.00026863)
(-0.0329752 0.0684736 -0.00026863)
(-0.0395131 0.0649208 -0.00026863)
(-0.0389803 0.0652421 -0.00026863)
(-0.0474774 0.0593455 -0.000268631)
(-0.0446717 0.0614853 -0.000268631)
(-0.0511759 0.0561874 -0.000268631)
(-0.0500033 0.0572334 -0.000268631)
(-0.05793 0.0491947 -0.000268632)
(-0.0549324 0.0525208 -0.000268631)
(-0.0609578 0.0453888 -0.000268632)
(-0.0594192 0.0473852 -0.000268632)
(-0.0637361 0.041397 -0.000268632)
(-0.0634276 0.0418682 -0.000268632)
(-0.0684992 0.032922 -0.000268633)
(-0.0669253 0.036014 -0.000268633)
(-0.0704646 0.0284734 -0.000268634)
(-0.0698841 0.0298699 -0.000268633)
(-0.073523 0.0192451 -0.000268634)
(-0.0722803 0.0234853 -0.000268634)
(-0.0746033 0.0145032 -0.000268635)
(-0.0740945 0.0169116 -0.000268635)
(-0.0753782 0.00970194 -0.000268635)
(-0.0753122 0.0102017 -0.000268635)
(-0.076 2.18029e-11 -0.000268636)
(-0.0759235 0.00340973 -0.000268636)
(-0.0758444 -0.00486092 -0.000268636)
(-0.0759235 -0.00340973 -0.000268636)
(-0.0746033 -0.0145032 -0.000268637)
(-0.0753122 -0.0102017 -0.000268637)
(-0.073523 -0.0192451 -0.000268638)
(-0.0740945 -0.0169116 -0.000268637)
(-0.0721415 -0.0239082 -0.000268638)
(-0.0722803 -0.0234853 -0.000268638)
(-0.0684992 -0.032922 -0.000268639)
(-0.0698841 -0.0298699 -0.000268639)
(-0.0662533 -0.0372358 -0.000268639)
(-0.0669253 -0.036014 -0.000268639)
(-0.0609578 -0.0453888 -0.00026864)
(-0.0634276 -0.0418682 -0.00026864)
(-0.05793 -0.0491947 -0.00026864)
(-0.0594192 -0.0473852 -0.00026864)
(-0.0546649 -0.0527992 -0.000268641)
(-0.0549324 -0.0525208 -0.000268641)
(-0.0474774 -0.0593455 -0.000268641)
(-0.0500033 -0.0572334 -0.000268641)
(-0.0435845 -0.0622607 -0.000268641)
(-0.0446717 -0.0614853 -0.000268641)
(-0.0352799 -0.0673151 -0.000268642)
(-0.0389803 -0.0652421 -0.000268642)
(-0.0309022 -0.0694338 -0.000268642)
(-0.0329752 -0.0684736 -0.000268642)
(-0.026398 -0.0712681 -0.000268642)
(-0.0267045 -0.0711538 -0.000268642)
(-0.0170841 -0.0740549 -0.000268642)
(-0.0202188 -0.0732612 -0.000268642)
(-0.0123126 -0.074996 -0.000268643)
(-0.0135703 -0.0747786 -0.000268643)
(-0.00402107 -0.0758935 -0.000268643)
(-0.00681259 -0.075694 -0.000268643)
(-0.00749072 0.07563 -0.000268629)
(-0.00681259 0.075694 -0.000268629)
(-0.00402107 0.0758935 -0.000268629)
(-0.00749072 -0.07563 -0.000268643)
(-0.0217857 -0.0728106 -0.000268642)
(-0.0395131 -0.0649208 -0.000268642)
(-0.0511759 -0.0561874 -0.000268641)
(-0.0637361 -0.041397 -0.00026864)
(-0.0704646 -0.0284734 -0.000268639)
(-0.0753782 -0.00970194 -0.000268637)
(-0.0758444 0.00486092 -0.000268636)
(-0.0721415 0.0239082 -0.000268634)
(-0.0662533 0.0372358 -0.000268633)
(-0.0546649 0.0527992 -0.000268631)
(-0.0435845 0.0622607 -0.000268631)
(-0.026398 0.0712681 -0.00026863)
(-0.0123126 0.074996 -0.000268629)
(-0.00384851 0.0759025 -0.000279989)
(-0.00358781 0.0759153 -0.00033514)
(-0.00352207 0.0759183 -0.000355142)
(-0.00347101 0.0759207 -0.000372046)
(-0.00334056 0.0759265 -0.000419733)
(-0.00322258 0.0759316 -0.000466914)
(-0.00302608 0.0759397 -0.000547933)
(-0.00259891 0.0759556 -0.000685413)
(-0.00232638 0.0759644 -0.000713771)
(-0.00280012 -0.0759484 -0.000631614)
(-0.00293713 -0.0759432 -0.000582973)
(-0.00274825 -0.0759503 -0.000647757)
(-0.00332429 -0.0759273 -0.00042607)
(-0.00346127 -0.0759211 -0.000375409)
(-0.00367038 -0.0759113 -0.00031322)
(-0.00374201 -0.0759078 -0.000297428)
(-0.00330301 -0.0759282 -0.000434441)
(-0.00232638 -0.0759644 -0.000713785)
(0 0.076 -0.000713773)
(0.00232636 0.0759644 -0.000713773)
(0.0028001 0.0759484 -0.000631607)
(0.00293712 0.0759432 -0.00058296)
(0.00274823 0.0759503 -0.000647749)
(0.00332428 0.0759273 -0.000426061)
(0.00346127 0.0759211 -0.000375396)
(0.00367038 0.0759113 -0.000313205)
(0.00374199 0.0759078 -0.000297417)
(0.00402107 0.0758935 -0.000268629)
(0.00330299 0.0759282 -0.000434434)
(0.0170841 -0.0740549 -0.000268642)
(0.0135703 -0.0747786 -0.000268643)
(0.0217857 -0.0728106 -0.000268642)
(0.0202188 -0.0732612 -0.000268642)
(0.0309022 -0.0694338 -0.000268642)
(0.0267045 -0.0711538 -0.000268642)
(0.0352799 -0.0673151 -0.000268642)
(0.0329752 -0.0684736 -0.000268642)
(0.0395131 -0.0649208 -0.000268642)
(0.0389803 -0.0652421 -0.000268642)
(0.0474774 -0.0593455 -0.000268641)
(0.0446717 -0.0614853 -0.000268641)
(0.0511759 -0.0561874 -0.000268641)
(0.0500033 -0.0572334 -0.000268641)
(0.05793 -0.0491947 -0.00026864)
(0.0549324 -0.0525208 -0.000268641)
(0.0609578 -0.0453888 -0.00026864)
(0.0594192 -0.0473852 -0.00026864)
(0.0637361 -0.041397 -0.00026864)
(0.0634276 -0.0418682 -0.00026864)
(0.0684992 -0.032922 -0.000268639)
(0.0669253 -0.036014 -0.000268639)
(0.0704646 -0.0284734 -0.000268639)
(0.0698841 -0.0298699 -0.000268639)
(0.073523 -0.0192451 -0.000268638)
(0.0722803 -0.0234853 -0.000268638)
(0.0746033 -0.0145032 -0.000268637)
(0.0740945 -0.0169116 -0.000268637)
(0.0753782 -0.00970194 -0.000268637)
(0.0753122 -0.0102017 -0.000268637)
(0.076 2.5166e-11 -0.000268636)
(0.0759235 -0.00340973 -0.000268636)
(0.0758444 0.00486092 -0.000268636)
(0.0759235 0.00340973 -0.000268636)
(0.0746033 0.0145032 -0.000268635)
(0.0753122 0.0102017 -0.000268635)
(0.073523 0.0192451 -0.000268634)
(0.0740945 0.0169116 -0.000268635)
(0.0721415 0.0239082 -0.000268634)
(0.0722803 0.0234853 -0.000268634)
(0.0684992 0.032922 -0.000268633)
(0.0698841 0.0298699 -0.000268633)
(0.0662533 0.0372358 -0.000268633)
(0.0669253 0.036014 -0.000268633)
(0.0609578 0.0453888 -0.000268632)
(0.0634276 0.0418682 -0.000268632)
(0.05793 0.0491947 -0.000268632)
(0.0594192 0.0473852 -0.000268632)
(0.0546649 0.0527992 -0.000268631)
(0.0549324 0.0525208 -0.000268631)
(0.0474774 0.0593455 -0.000268631)
(0.0500033 0.0572334 -0.000268631)
(0.0435845 0.0622607 -0.000268631)
(0.0446717 0.0614853 -0.000268631)
(0.0352799 0.0673151 -0.00026863)
(0.0389803 0.0652421 -0.00026863)
(0.0309022 0.0694338 -0.00026863)
(0.0329752 0.0684736 -0.00026863)
(0.026398 0.0712681 -0.00026863)
(0.0267045 0.0711538 -0.00026863)
(0.0170841 0.0740549 -0.00026863)
(0.0202188 0.0732612 -0.00026863)
(0.0123126 0.074996 -0.000268629)
(0.0135703 0.0747786 -0.000268629)
(0.00749072 -0.07563 -0.000268643)
(0.00681259 -0.075694 -0.000268643)
(0.00681259 0.075694 -0.000268629)
(0.00749072 0.07563 -0.000268629)
(0.00402107 -0.0758935 -0.000268643)
(0.0217857 0.0728106 -0.00026863)
(0.0395131 0.0649208 -0.00026863)
(0.0511759 0.0561874 -0.000268631)
(0.0637361 0.041397 -0.000268632)
(0.0704646 0.0284734 -0.000268634)
(0.0753782 0.00970194 -0.000268635)
(0.0758444 -0.00486092 -0.000268636)
(0.0721415 -0.0239082 -0.000268638)
(0.0662533 -0.0372358 -0.000268639)
(0.0546649 -0.0527992 -0.000268641)
(0.0435845 -0.0622607 -0.000268641)
(0.026398 -0.0712681 -0.000268642)
(0.0123126 -0.074996 -0.000268643)
(0 -0.076 -0.000713787)
(0.00232636 -0.0759644 -0.000713787)
(0.00384813 -0.0759025 -0.000280053)
(0.00358781 -0.0759153 -0.000335154)
(0.00352207 -0.0759183 -0.000355156)
(0.00346932 -0.0759208 -0.000372639)
(0.00334055 -0.0759266 -0.000419752)
(0.00322047 -0.0759317 -0.000467794)
(0.00302609 -0.0759397 -0.000547945)
(0.00277484 -0.0759493 -0.000639658)
(0.00259891 -0.0759556 -0.000685426)
(-0.00681259 -0.075694 -0.00628583)
(-0.0102017 -0.0753122 -0.00628583)
(-0.0135703 -0.0747786 -0.00628583)
(-0.0169116 -0.0740945 -0.00628583)
(-0.0202188 -0.0732612 -0.00628583)
(-0.0234853 -0.0722803 -0.00628583)
(-0.0267045 -0.0711538 -0.00628583)
(-0.0298699 -0.0698841 -0.00628583)
(-0.0329752 -0.0684736 -0.00628583)
(-0.036014 -0.0669253 -0.00628583)
(-0.0389803 -0.0652421 -0.00628583)
(-0.0418682 -0.0634276 -0.00628583)
(-0.0446717 -0.0614853 -0.00628583)
(-0.0473852 -0.0594192 -0.00628583)
(-0.0500033 -0.0572334 -0.00628583)
(-0.0525208 -0.0549324 -0.00628582)
(-0.0549324 -0.0525208 -0.00628582)
(-0.0572334 -0.0500033 -0.00628582)
(-0.0594192 -0.0473852 -0.00628582)
(-0.0614853 -0.0446717 -0.00628582)
(-0.0634276 -0.0418682 -0.00628582)
(-0.0652421 -0.0389803 -0.00628582)
(-0.0669253 -0.036014 -0.00628582)
(-0.0684736 -0.0329752 -0.00628582)
(-0.0698841 -0.0298699 -0.00628582)
(-0.0711538 -0.0267045 -0.00628582)
(-0.0722803 -0.0234853 -0.00628582)
(-0.0732612 -0.0202188 -0.00628582)
(-0.0740945 -0.0169116 -0.00628582)
(-0.0747786 -0.0135703 -0.00628582)
(-0.0753122 -0.0102017 -0.00628582)
(-0.075694 -0.00681259 -0.00628582)
(-0.0759235 -0.00340973 -0.00628582)
(-0.076 5.49524e-10 -0.00628582)
(-0.0759235 0.00340973 -0.00628582)
(-0.075694 0.00681259 -0.00628582)
(-0.0753122 0.0102017 -0.00628582)
(-0.0747786 0.0135703 -0.00628582)
(-0.0740945 0.0169116 -0.00628582)
(-0.0732612 0.0202188 -0.00628582)
(-0.0722803 0.0234853 -0.00628582)
(-0.0711538 0.0267045 -0.00628582)
(-0.0698841 0.0298699 -0.00628582)
(-0.0684736 0.0329752 -0.00628582)
(-0.0669253 0.036014 -0.00628582)
(-0.0652421 0.0389803 -0.00628582)
(-0.0634276 0.0418682 -0.00628582)
(-0.0614853 0.0446717 -0.00628582)
(-0.0594192 0.0473852 -0.00628582)
(-0.0572334 0.0500033 -0.00628582)
(-0.0549324 0.0525208 -0.00628582)
(-0.0525208 0.0549324 -0.00628582)
(-0.0500033 0.0572334 -0.00628582)
(-0.0473852 0.0594192 -0.00628582)
(-0.0446717 0.0614853 -0.00628581)
(-0.0418682 0.0634276 -0.00628581)
(-0.0389803 0.0652421 -0.00628581)
(-0.036014 0.0669253 -0.00628581)
(-0.0329752 0.0684736 -0.00628581)
(-0.0298699 0.0698841 -0.00628581)
(-0.0267045 0.0711538 -0.00628581)
(-0.0234853 0.0722803 -0.00628581)
(-0.0202188 0.0732612 -0.00628581)
(-0.0169116 0.0740945 -0.00628581)
(-0.0135703 0.0747786 -0.00628581)
(-0.0102017 0.0753122 -0.00628581)
(-0.000641757 0.0759973 -0.00797193)
(-0.000507424 0.0759983 -0.00810246)
(-0.000317037 0.0759993 -0.00821145)
(-0.000271288 0.0759995 -0.0082269)
(-0.000100351 0.0759999 -0.00825195)
(-0.000711317 0.0759967 -0.00788076)
(-0.000833395 0.0759954 -0.00766083)
(-0.00085401 0.0759952 -0.00761177)
(-0.000949701 0.0759941 -0.00721705)
(-0.000921044 0.0759944 -0.00739487)
(-0.000954416 0.075994 -0.00715475)
(-0.00681259 0.075694 -0.00628581)
(-0.00340973 0.0759235 -0.00628581)
(-0.00340973 -0.0759235 -0.00628583)
(-0.000954399 -0.075994 -0.0071551)
(-0.000875603 -0.075995 -0.00755402)
(-0.000910397 -0.0759945 -0.00743903)
(-0.000847034 -0.0759953 -0.00762897)
(-0.000265678 -0.0759995 -0.00822855)
(-0.000438284 -0.0759987 -0.00815102)
(-0.000641757 -0.0759973 -0.00797195)