/*--------------------------------*- C++ -*----------------------------------*\
  =========                 |
  \\      /  F ield         | OpenFOAM: The Open Source CFD Toolbox
   \\    /   O peration     | Website:  https://openfoam.org
    \\  /    A nd           | Version:  8
     \\/     M anipulation  |
\*---------------------------------------------------------------------------*/
FoamFile
{
    version     2.0;
    format      ascii;
    class       featureEdgeMesh;
    location    "constant/triSurface";
    object      fati.eMesh;
}
// * * * * * * * * * * * * * * * * * * * * * * * * * * * * * * * * * * * * * //


// points:

3675
(
(-0.07825 -0.1073 -0.02775)
(-0.07825 -0.1073 -0.01575)
(-0.05225 -0.1073 -0.02775)
(-0.06925 -0.1073 -0.01575)
(-0.05225 -0.1073 -0.01575)
(-0.06125 -0.1073 -0.01575)
(0.07825 -0.1073 -0.02775)
(0.05225 -0.1073 -0.02775)
(0.07825 -0.1073 -0.01575)
(0.05225 -0.1073 -0.01575)
(0.06925 -0.1073 -0.01575)
(0.06125 -0.1073 -0.01575)
(0.06925 -0.1073 -0.02075)
(0.06125 -0.1073 -0.02075)
(-0.06925 -0.1073 -0.02075)
(-0.06125 -0.1073 -0.02075)
(5.6641 0.013574 -0.0113006)
(5.6641 -0.0600106 -0.0757875)
(5.6641 0.0117169 -0.0109039)
(5.6641 0.00850064 -0.00794124)
(5.6641 0.00786278 -0.00843067)
(5.6641 0.00209352 -0.00835135)
(5.6641 -0.00973703 -0.00743143)
(5.6641 -0.0156594 -0.0118195)
(5.6641 -0.0585745 -0.0702562)
(5.6641 0.0600106 -0.0668625)
(5.6641 0.0586702 -0.0737063)
(5.6641 0.0619255 -0.0710813)
(5.6641 -0.00670345 -0.0103098)
(5.6641 0.00794376 -0.00786194)
(-0.05225 -0.0707646 -0.02055)
(0.05225 -0.0707646 -0.02055)
(0.07325 -0.0550551 -0.02375)
(-0.07325 -0.0550551 -0.02375)
(0.1394 0.0625 -0.0705188)
(0.1394 0.058 -0.0742688)
(0.1394 0.0625 -0.0742688)
(0.1394 0.0625 -0.0737063)
(0.1394 0.058 -0.0705188)
(0.1394 0.058 -0.0710813)
(0.1394 0.058 -0.0668625)
(0.1394 0.058 -0.0663)
(0.1394 0.0625 -0.0663)
(0.1394 -0.0591489 -0.063975)
(0.1394 -0.0591489 -0.0645375)
(0.1394 -0.0613511 -0.0645375)
(0.1394 -0.0613511 -0.063975)
(0.1394 -0.058 -0.0757875)
(0.1394 -0.058 -0.07635)
(0.1394 -0.0625 -0.07635)
(0.1394 -0.0625 -0.0715687)
(0.1394 -0.0625 -0.0721312)
(0.1394 -0.0625 -0.0683812)
(0.1394 -0.0625 -0.0689437)
(0.1394 -0.058 -0.0706312)
(0.1394 -0.058 -0.0698812)
(0.1394 -0.0152894 -0.0110266)
(0.1394 -0.0160046 -0.0127049)
(0.1394 -0.0171686 -0.00835805)
(0.1394 -0.0166252 -0.00821255)
(0.1394 -0.00922907 -0.0112274)
(0.1394 -0.0103835 -0.00684175)
(0.1394 -0.00606973 -0.0108046)
(0.1394 -0.0097866 -0.011302)
(0.1394 -0.00666658 -0.00634437)
(0.1394 -0.00722411 -0.00641898)
(0.1394 -0.0018375 -0.00602412)
(0.1394 -0.0015778 -0.0105166)
(0.1394 -0.000839226 -0.00765594)
(0.1394 -0.00083712 -0.00813466)
(0.1394 0.000473261 -0.00765017)
(0.1394 0.000475368 -0.00812889)
(0.1394 0.00477623 -0.00723648)
(0.1394 0.00430804 -0.00721357)
(0.1394 0.00456557 -0.00962265)
(0.1394 0.00322653 -0.00821508)
(0.1394 0.00320781 -0.0085976)
(0.1394 0.00577437 -0.00628468)
(0.1394 0.00572963 -0.0067613)
(0.1394 0.00624107 -0.00632849)
(0.1394 0.00619633 -0.00680512)
(0.1394 0.00749835 -0.01099)
(0.1394 0.00693464 -0.00829851)
(0.1394 0.00701562 -0.00772978)
(0.1394 0.00813272 -0.0065349)
(0.1394 0.0086896 -0.0066142)
(0.1394 0.0107282 -0.00825842)
(0.1394 0.0110168 -0.0115465)
(0.1394 0.0118877 -0.00713159)
(0.1394 0.0123985 -0.0103552)
(0.1394 0.0124396 -0.00724046)
(0.1394 0.0128541 -0.0119209)
(0.1394 0.013863 -0.0075355)
(0.1394 0.0142724 -0.0107736)
(0.1394 0.0144112 -0.00766161)
(0.1391 0.00841966 -0.00850997)
(0.1391 0.0099975 -0.00873464)
(0.1391 0.00816321 -0.010311)
(0.1391 -0.0620213 -0.0757875)
(0.1391 -0.0605851 -0.0757875)
(0.1391 0.0620213 -0.0668625)
(0.1391 0.0605851 -0.0668625)
(0.1391 -0.00236591 -0.00663009)
(0.1391 -0.00217252 -0.00997557)
(-0.075888 -0.0441292 -0.122628)
(-0.0650407 -0.0590035 -0.10519)
(-0.0666676 -0.0571517 -0.107881)
(-0.0658568 -0.0580878 -0.106543)
(-0.07825 -0.0541822 -0.02775)
(-0.05225 -0.070749 -0.02775)
(-0.06925 -0.0930771 -0.01575)
(-0.05225 -0.10358 -0.01575)
(0.07825 -0.0541822 -0.02775)
(0.05225 -0.070749 -0.02775)
(0.05225 -0.10358 -0.01575)
(0.06925 -0.0930771 -0.01575)
(0.07325 -0.1073 -0.02075)
(0.07325 -0.1073 -0.02375)
(0.05725 -0.1073 -0.02075)
(0.05725 -0.1073 -0.02375)
(-0.07325 -0.1073 -0.02075)
(-0.07325 -0.1073 -0.02375)
(-0.05725 -0.1073 -0.02375)
(-0.05725 -0.1073 -0.02075)
(0.0650415 -0.0590028 -0.10519)
(0.075888 -0.0441292 -0.122628)
(0.0669596 -0.0568084 -0.108362)
(0.0650407 0.0590035 -0.10519)
(-0.0650415 0.0590028 -0.10519)
(-0.075888 0.0441292 -0.122628)
(-0.0669596 0.0568084 -0.108362)
(0.0666676 0.0571517 -0.107881)
(0.0658568 0.0580878 -0.106543)
(0.075888 0.0441292 -0.122628)
(-0.0659255 -0.0583664 -5.10255e-09)
(-0.0583664 -0.0659255 -5.76339e-09)
(0.0583664 -0.0659255 -5.76339e-09)
(0.0659255 -0.0583664 -5.10255e-09)
(5.6641 -0.000839226 -0.00765594)
(5.6641 0.000473261 -0.00765017)
(5.6641 -0.00083712 -0.00813466)
(5.6641 0.000475368 -0.00812889)
(5.6641 0.0142724 -0.0107736)
(5.6641 0.0128541 -0.0119209)
(5.6641 0.0144112 -0.00766161)
(5.6641 0.013863 -0.0075355)
(5.6641 -0.058 -0.07635)
(5.6641 -0.0625 -0.07635)
(5.6641 -0.058 -0.0757875)
(5.6641 0.0118877 -0.00713159)
(5.6641 0.0124396 -0.00724046)
(5.6641 0.0123985 -0.0103552)
(5.6641 0.0110168 -0.0115465)
(5.6641 0.00813272 -0.0065349)
(5.6641 0.0086896 -0.0066142)
(5.6641 0.0107282 -0.00825842)
(5.6641 0.00693464 -0.00829851)
(5.6641 0.00749835 -0.01099)
(5.6641 0.00701562 -0.00772978)
(5.6641 0.00430804 -0.00721357)
(5.6641 0.00477623 -0.00723648)
(5.6641 0.00320781 -0.0085976)
(5.6641 0.00322653 -0.00821508)
(5.6641 0.00456557 -0.00962265)
(5.6641 0.00577437 -0.00628468)
(5.6641 0.00624107 -0.00632849)
(5.6641 0.00619633 -0.00680512)
(5.6641 0.00572963 -0.0067613)
(5.6641 -0.0018375 -0.00602412)
(5.6641 -0.0015778 -0.0105166)
(5.6641 -0.0103835 -0.00684175)
(5.6641 -0.00722411 -0.00641898)
(5.6641 -0.00666658 -0.00634437)
(5.6641 -0.0097866 -0.011302)
(5.6641 -0.0152894 -0.0110266)
(5.6641 -0.0166252 -0.00821255)
(5.6641 -0.0171686 -0.00835805)
(5.6641 -0.0160046 -0.0127049)
(5.6641 -0.00922907 -0.0112274)
(5.6641 -0.00606973 -0.0108046)
(5.6641 -0.0625 -0.0683812)
(5.6641 -0.058 -0.0698812)
(5.6641 -0.0625 -0.0689437)
(5.6641 -0.058 -0.0706312)
(5.6641 -0.0625 -0.0721312)
(5.6641 -0.0625 -0.0715687)
(5.6641 -0.0591489 -0.063975)
(5.6641 -0.0591489 -0.0645375)
(5.6641 -0.0613511 -0.0645375)
(5.6641 -0.0613511 -0.063975)
(5.6641 0.0625 -0.0663)
(5.6641 0.058 -0.0663)
(5.6641 0.058 -0.0668625)
(5.6641 0.058 -0.0742688)
(5.6641 0.0625 -0.0742688)
(5.6641 0.0625 -0.0737063)
(5.6641 0.0625 -0.0705188)
(5.6641 0.058 -0.0705188)
(5.6641 0.058 -0.0710813)
(0.1394 0.0619255 -0.0710813)
(0.1394 0.0586702 -0.0737063)
(0.1394 0.0600106 -0.0668625)
(0.1394 -0.0600106 -0.0757875)
(0.1394 -0.0585745 -0.0702562)
(0.1394 -0.0156594 -0.0118195)
(0.1394 -0.00973703 -0.00743143)
(0.1394 -0.00670345 -0.0103098)
(0.1394 0.00209352 -0.00835135)
(0.1394 0.00786278 -0.00843067)
(0.1394 0.00794376 -0.00786194)
(0.1394 0.00850064 -0.00794124)
(0.1394 0.0117169 -0.0109039)
(0.1394 0.013574 -0.0113006)
(0.1394 0.0099975 -0.00873464)
(0.1394 0.00816321 -0.010311)
(0.1394 0.00841966 -0.00850997)
(0.1394 -0.0620213 -0.0757875)
(0.1394 -0.0605851 -0.0757875)
(0.1394 0.0620213 -0.0668625)
(0.1394 0.0605851 -0.0668625)
(0.1394 -0.00236591 -0.00663009)
(0.1394 -0.00217252 -0.00997557)
(-0.0873709 0.0082654 -0.13815)
(-0.0876008 0.0059864 -0.138387)
(-0.0873326 0.00866707 -0.1381)
(-0.0755666 -0.0446789 -0.122163)
(-0.0746212 -0.0463876 -0.120652)
(-0.0733625 -0.0484631 -0.118673)
(-0.0755888 -0.0446792 -0.122163)
(-0.0727032 -0.0494899 -0.117631)
(-0.0720644 -0.050448 -0.116616)
(-0.0707287 -0.0523424 -0.114482)
(-0.067951 -0.0558582 -0.109986)
(-0.066512 -0.0574777 -0.107625)
(-0.0695944 -0.0538436 -0.112656)
(-0.069357 -0.0541461 -0.112272)
(-0.0663045 -0.0577007 -0.107283)
(-0.0746733 -0.0461609 -0.120859)
(-0.0689723 -0.0543374 -0.111677)
(-0.0686109 -0.0547947 -0.111086)
(-0.067251 -0.0564615 -0.108853)
(-0.0681428 -0.0553778 -0.110319)
(-0.0656982 -0.0582678 -0.106283)
(-0.0726384 -0.049311 -0.117611)
(-0.0715361 -0.0509023 -0.115838)
(-0.0709056 -0.05178 -0.11482)
(-0.0698704 -0.0531734 -0.113141)
(-0.0731378 -0.0485647 -0.118412)
(-0.07825 -0.0856496 -0.01575)
(-0.0169995 -0.0863048 -0.0211422)
(-0.0155166 -0.0865843 -0.0208235)
(-0.0139923 -0.086844 -0.020621)
(-0.0124689 -0.0870759 -0.02055)
(-0.06125 -0.0985259 -0.01575)
(0.07825 -0.0856496 -0.01575)
(0.06125 -0.0985259 -0.01575)
(0.06925 -0.0593217 -0.02075)
(0.06125 -0.0631353 -0.02075)
(-0.06925 -0.0593217 -0.02075)
(-0.06125 -0.0631353 -0.02075)
(0.0170168 -0.0863014 -0.0211466)
(0.0155532 -0.0865777 -0.02083)
(0.0126513 -0.0870496 -0.0205511)
(0.0124689 -0.0870759 -0.02055)
(0.0140946 -0.0868275 -0.0206306)
(-5.6641 0.0170732 -0.0177541)
(-5.6641 0.0143836 -0.0169551)
(-5.6641 0.0224722 -0.0198266)
(-5.6641 0.0199132 -0.0187634)
(-5.6641 0.0392513 -0.0314169)
(-5.6641 0.0369695 -0.0292413)
(-5.6641 -0.0224722 -0.0198266)
(-5.6641 -0.0252221 -0.021143)
(-5.6641 -0.0170732 -0.0177541)
(-5.6641 -0.0199132 -0.0187633)
(-5.6641 -0.0114871 -0.0162573)
(-5.6641 -0.0143836 -0.0169551)
(-5.6641 0.00869443 -0.0157384)
(-5.6641 0.0057752 -0.0153527)
(-5.6641 0.0114871 -0.0162573)
(-5.6641 0.0431224 -0.0357599)
(-5.6641 0.0410588 -0.0333305)
(-5.6641 0.0446982 -0.0378249)
(-5.6641 -0.0392513 -0.0314169)
(-5.6641 -0.0410587 -0.0333305)
(-5.6641 -0.0057752 -0.0153527)
(-5.6641 -0.00869443 -0.0157384)
(-5.6641 0.027625 -0.0224521)
(-5.6641 0.0252221 -0.021143)
(-5.6641 0.0478479 -0.042675)
(-5.6641 0.0465153 -0.0404858)
(-5.6641 0.0504734 -0.0478278)
(-5.6641 0.0493925 -0.0455424)
(-5.6641 -0.034945 -0.027505)
(-5.6641 -0.0369695 -0.0292412)
(-5.6641 -0.027625 -0.0224521)
(-5.6641 -0.0302513 -0.0240677)
(-5.6641 0.0324751 -0.0256018)
(-5.6641 0.0302513 -0.0240677)
(-5.6641 0.0525459 -0.0532268)
(-5.6641 0.051722 -0.0508734)
(-5.6641 -0.0540427 -0.0817871)
(-5.6641 -0.0532069 -0.0851857)
(-5.6641 -0.0504734 -0.0478278)
(-5.6641 -0.051722 -0.0508734)
(-5.6641 -0.0446982 -0.0378249)
(-5.6641 -0.0465153 -0.0404858)
(-5.6641 -0.0324751 -0.0256018)
(-5.6641 0.034945 -0.0275051)
(-5.6641 -0.0525459 -0.0873732)
(-5.6641 -0.0549473 -0.0760752)
(-5.6641 -0.0544772 -0.0795083)
(-5.6641 -0.0546411 -0.0621202)
(-5.6641 -0.0549473 -0.0645248)
(-5.6641 -0.0540426 -0.0588129)
(-5.6641 -0.0525459 -0.0532268)
(-5.6641 -0.0478479 -0.042675)
(-5.6641 -0.0493925 -0.0455423)
(-5.6641 -0.0431224 -0.0357599)
(-5.6641 0.0540427 -0.0588129)
(-5.6641 0.0534781 -0.0564199)
(-5.6641 -0.05525 -0.0703)
(-5.6641 -0.0551435 -0.0737288)
(-5.6641 -0.0551983 -0.0679112)
(-5.6641 -0.0534781 -0.0564198)
(-5.6641 0.0551983 -0.0679113)
(-5.6641 0.0549473 -0.0645248)
(-5.6641 0.05525 -0.0703)
(-5.6641 0.0549473 -0.0760752)
(-5.6641 0.0551435 -0.0737288)
(-5.6641 -0.0513467 -0.090698)
(-5.6641 -0.0504734 -0.0927722)
(-5.6641 0.0546411 -0.0621202)
(-5.6641 0.0540426 -0.0817872)
(-5.6641 0.0544772 -0.0795083)
(-5.6641 0.0385114 -0.109916)
(-5.6641 0.0410587 -0.10727)
(-5.6641 -0.0489171 -0.0959842)
(-5.6641 -0.0224722 -0.120773)
(-5.6641 -0.0189383 -0.122203)
(-5.6641 -0.027625 -0.118148)
(-5.6641 -0.024291 -0.119924)
(-5.6641 -0.0324752 -0.114998)
(-5.6641 -0.0293745 -0.117094)
(-5.6641 -0.0369695 -0.111359)
(-5.6641 -0.0341322 -0.113746)
(-5.6641 -0.0459451 -0.100986)
(-5.6641 -0.0446982 -0.102775)
(-5.6641 -0.0478479 -0.097925)
(-5.6641 0.0525459 -0.0873732)
(-5.6641 0.0532069 -0.0851857)
(-5.6641 0.0424637 -0.105647)
(-5.6641 0.0446982 -0.102775)
(-5.6641 0.0324751 -0.114998)
(-5.6641 0.0341322 -0.113746)
(-5.6641 0.027625 -0.118148)
(-5.6641 0.0293744 -0.117094)
(-5.6641 -0.0133755 -0.123907)
(-5.6641 -0.0114872 -0.124343)
(-5.6641 -0.0170732 -0.122846)
(-5.6641 -0.0410588 -0.107269)
(-5.6641 -0.0385115 -0.109916)
(-5.6641 -0.0424637 -0.105647)
(-5.6641 0.0504734 -0.0927722)
(-5.6641 0.0513467 -0.0906981)
(-5.6641 0.0478479 -0.097925)
(-5.6641 0.0489171 -0.0959843)
(-5.6641 0.0369694 -0.111359)
(-5.6641 0.0170731 -0.122846)
(-5.6641 0.0189382 -0.122203)
(-5.6641 0.0114871 -0.124343)
(-5.6641 0.0133755 -0.123907)
(-5.6641 0.0224722 -0.120773)
(-5.6641 0.024291 -0.119924)
(-5.6641 0.0459451 -0.100986)
(-5.6641 -0.00766447 -0.125016)
(-5.6641 -0.00577524 -0.125247)
(-5.6641 0.00766444 -0.125016)
(-5.6641 -4.86637e-08 -0.12555)
(-5.6641 0.00577515 -0.125247)
(-5.6641 1.31571e-09 -0.01505)
(0.0746735 -0.0461605 -0.12086)
(0.074465 -0.0464972 -0.120528)
(0.0686109 -0.0547947 -0.111086)
(0.0683468 -0.055125 -0.110653)
(0.0667127 -0.057099 -0.107964)
(0.0714946 -0.0509608 -0.115771)
(0.0709056 -0.05178 -0.11482)
(0.0730031 -0.0487677 -0.118196)
(0.0755666 -0.0446789 -0.122163)
(0.0755888 -0.0446792 -0.122163)
(0.0746217 -0.0463869 -0.120653)
(0.073363 -0.0484624 -0.118674)
(0.0727032 -0.0494899 -0.117631)
(0.0720649 -0.0504473 -0.116617)
(0.0707291 -0.0523418 -0.114483)
(0.0695944 -0.0538436 -0.112656)
(0.0679514 -0.0558576 -0.109987)
(0.0665125 -0.0574771 -0.107626)
(0.0693575 -0.0541455 -0.112273)
(0.0663045 -0.0577006 -0.107283)
(-0.0056 1.07792e-08 -0.1233)
(-0.00532592 -0.00173049 -0.1233)
(0.00498964 -0.00254234 -0.1233)
(0.00532592 -0.00173049 -0.1233)
(0.00553105 -0.000876022 -0.1233)
(0.0039598 -0.00395979 -0.1233)
(0.0045305 -0.00329159 -0.1233)
(0.0032916 -0.00453049 -0.1233)
(0.00254235 -0.00498963 -0.1233)
(0.0017305 -0.00532591 -0.1233)
(0.000876033 -0.00553104 -0.1233)
(0 -0.00559999 -0.1233)
(-0.000876033 -0.00553104 -0.1233)
(-0.00254235 -0.00498963 -0.1233)
(-0.0017305 -0.00532591 -0.1233)
(-0.0039598 -0.00395979 -0.1233)
(-0.0032916 -0.00453049 -0.1233)
(-0.00498964 -0.00254234 -0.1233)
(-0.0045305 -0.00329159 -0.1233)
(0.0056 1.07792e-08 -0.1233)
(0 0.00560001 -0.1233)
(0.000876033 0.00553106 -0.1233)
(-0.0017305 0.00532593 -0.1233)
(-0.000876033 0.00553106 -0.1233)
(-0.0032916 0.00453051 -0.1233)
(-0.00254235 0.00498965 -0.1233)
(-0.0045305 0.00329161 -0.1233)
(-0.0039598 0.00395981 -0.1233)
(0.0017305 0.00532593 -0.1233)
(0.00254235 0.00498965 -0.1233)
(-0.00532592 0.00173051 -0.1233)
(-0.00498964 0.00254236 -0.1233)
(0.00498964 0.00254236 -0.1233)
(0.00532592 0.00173051 -0.1233)
(0.0032916 0.00453051 -0.1233)
(0.0039598 0.00395981 -0.1233)
(-0.00553105 0.000876044 -0.1233)
(0.0045305 0.00329161 -0.1233)
(0.0656982 0.0582678 -0.106283)
(0.067251 0.0564615 -0.108853)
(0.0681428 0.0553778 -0.110319)
(0.0689723 0.0543374 -0.111677)
(0.0698704 0.0531734 -0.113141)
(0.0686109 0.0547947 -0.111086)
(0.0709056 0.05178 -0.11482)
(0.0715361 0.0509023 -0.115838)
(0.0726384 0.049311 -0.117611)
(0.0731378 0.0485647 -0.118412)
(0.0746733 0.0461609 -0.120859)
(0.0155166 0.0865843 -0.0208235)
(0.0169995 0.0863048 -0.0211422)
(0.0139923 0.086844 -0.020621)
(0.0124689 0.0870759 -0.02055)
(-0.017017 0.0863014 -0.0211467)
(-0.0155535 0.0865777 -0.02083)
(-0.0126515 0.0870496 -0.0205511)
(-0.0124689 0.0870759 -0.02055)
(-0.0140949 0.0868274 -0.0206306)
(-0.0746735 0.0461605 -0.12086)
(-0.074465 0.0464972 -0.120528)
(-0.0686109 0.0547947 -0.111086)
(-0.0683468 0.055125 -0.110653)
(-0.0667127 0.057099 -0.107964)
(-0.0714946 0.0509608 -0.115771)
(-0.0709056 0.05178 -0.11482)
(-0.0730031 0.0487677 -0.118196)
(-0.0755666 0.0446789 -0.122163)
(-0.0755888 0.0446792 -0.122163)
(-0.0746217 0.0463869 -0.120653)
(-0.073363 0.0484624 -0.118674)
(-0.0727032 0.0494899 -0.117631)
(-0.0720649 0.0504473 -0.116617)
(-0.0707291 0.0523418 -0.114483)
(-0.0695944 0.0538436 -0.112656)
(-0.0679514 0.0558576 -0.109987)
(-0.0665125 0.0574771 -0.107626)
(-0.0693575 0.0541455 -0.112273)
(-0.0663045 0.0577006 -0.107283)
(0.0756967 0.0444575 -0.122352)
(0.066512 0.0574777 -0.107625)
(0.067951 0.0558582 -0.109986)
(0.069357 0.0541461 -0.112272)
(0.069773 0.0536135 -0.112944)
(0.0707287 0.0523424 -0.114482)
(0.0720644 0.050448 -0.116616)
(0.0728528 0.0492604 -0.117868)
(0.0733625 0.0484631 -0.118673)
(0.0746212 0.0463876 -0.120652)
(0.07571 0.0444577 -0.122351)
(-0.0397959 0.087142 -0.02055)
(-0.0378889 0.087142 -0.02055)
(-0.0432299 0.0887103 -0.02055)
(-0.0416256 0.0876792 -0.02055)
(0.0324138 0.0918862 -0.02055)
(0.033206 0.0901515 -0.02055)
(0.0321424 0.0937738 -0.02055)
(-0.0321424 0.0937738 -0.02055)
(-0.0324138 0.0956614 -0.02055)
(0.0324138 0.0956614 -0.02055)
(-0.0444788 0.0901515 -0.02055)
(-0.033206 0.0973961 -0.02055)
(-0.0324138 0.0918862 -0.02055)
(-0.0444788 0.0973961 -0.02055)
(-0.045271 0.0956614 -0.02055)
(-0.0416256 0.0998683 -0.02055)
(-0.0432299 0.0988373 -0.02055)
(-0.0397959 0.100406 -0.02055)
(-0.0360591 0.0998683 -0.02055)
(-0.0378889 0.100406 -0.02055)
(-0.0344548 0.0988373 -0.02055)
(0.0344548 0.0887103 -0.02055)
(0.033206 0.0973961 -0.02055)
(-0.0455424 0.0937738 -0.02055)
(-0.045271 0.0918862 -0.02055)
(0.0397959 0.100406 -0.02055)
(0.0378889 0.100406 -0.02055)
(0.0360591 0.0876792 -0.02055)
(-0.033206 0.0901515 -0.02055)
(-0.0360591 0.0876792 -0.02055)
(-0.0344548 0.0887103 -0.02055)
(0.0416256 0.0998683 -0.02055)
(0.0455424 0.0937738 -0.02055)
(0.045271 0.0956614 -0.02055)
(0.045271 0.0918862 -0.02055)
(0.0444788 0.0901515 -0.02055)
(0.0432299 0.0988373 -0.02055)
(0.0444788 0.0973961 -0.02055)
(0.0378889 0.087142 -0.02055)
(0.0360591 0.0998683 -0.02055)
(0.0344548 0.0988373 -0.02055)
(0.0416256 0.0876792 -0.02055)
(0.0432299 0.0887103 -0.02055)
(0.0397959 0.087142 -0.02055)
(0.0324138 0.0956614 8.36298e-09)
(0.0321424 0.0937738 8.19797e-09)
(0.033206 0.0973961 8.51464e-09)
(0.0344548 0.0988373 8.64063e-09)
(0.0360591 0.0998683 8.73076e-09)
(0.0378889 0.100406 8.77777e-09)
(0.0397959 0.100406 8.77777e-09)
(0.0416256 0.0998683 8.73076e-09)
(0.0432299 0.0988373 8.64063e-09)
(0.0444788 0.0973961 8.51464e-09)
(0.045271 0.0956614 8.36298e-09)
(0.0455424 0.0937738 8.19797e-09)
(0.045271 0.0918862 8.03295e-09)
(0.0444788 0.0901515 7.88129e-09)
(0.0432299 0.0887103 7.7553e-09)
(0.0416256 0.0876792 7.66516e-09)
(0.0397959 0.087142 7.6182e-09)
(0.0378889 0.087142 7.6182e-09)
(0.0360591 0.0876792 7.66516e-09)
(0.0344548 0.0887103 7.7553e-09)
(0.033206 0.0901515 7.88129e-09)
(0.0324138 0.0918862 8.03295e-09)
(-0.0324138 0.0918862 8.03295e-09)
(-0.0321424 0.0937738 8.19797e-09)
(-0.033206 0.0901515 7.88129e-09)
(-0.0344548 0.0887103 7.7553e-09)
(-0.0360591 0.0876792 7.66516e-09)
(-0.0378889 0.087142 7.6182e-09)
(-0.0397959 0.087142 7.6182e-09)
(-0.0416256 0.0876792 7.66516e-09)
(-0.0432299 0.0887103 7.7553e-09)
(-0.0444788 0.0901515 7.88129e-09)
(-0.045271 0.0918862 8.03295e-09)
(-0.0455424 0.0937738 8.19797e-09)
(-0.045271 0.0956614 8.36298e-09)
(-0.0444788 0.0973961 8.51464e-09)
(-0.0432299 0.0988373 8.64063e-09)
(-0.0416256 0.0998683 8.73076e-09)
(-0.0397959 0.100406 8.77777e-09)
(-0.0378889 0.100406 8.77777e-09)
(-0.0360591 0.0998683 8.73076e-09)
(-0.0344548 0.0988373 8.64063e-09)
(-0.033206 0.0973961 8.51464e-09)
(-0.0324138 0.0956614 8.36298e-09)
(-0.0324138 -0.0956614 -0.02055)
(-0.0321424 -0.0937738 -0.02055)
(0.0324138 -0.0956614 -0.02055)
(0.033206 -0.0973961 -0.02055)
(0.0324138 -0.0918862 -0.02055)
(0.0321424 -0.0937738 -0.02055)
(0.0344548 -0.0988373 -0.02055)
(0.0360591 -0.0998683 -0.02055)
(0.033206 -0.0901515 -0.02055)
(-0.033206 -0.0973961 -0.02055)
(-0.0360591 -0.0998683 -0.02055)
(-0.0344548 -0.0988373 -0.02055)
(-0.0360591 -0.0876792 -0.02055)
(-0.0378889 -0.087142 -0.02055)
(0.0378889 -0.100406 -0.02055)
(0.0360591 -0.0876792 -0.02055)
(0.0344548 -0.0887103 -0.02055)
(-0.0416256 -0.0998683 -0.02055)
(-0.0397959 -0.100406 -0.02055)
(0.0444788 -0.0973961 -0.02055)
(0.045271 -0.0956614 -0.02055)
(0.0416256 -0.0998683 -0.02055)
(0.0432299 -0.0988373 -0.02055)
(-0.0444788 -0.0973961 -0.02055)
(-0.0432299 -0.0988373 -0.02055)
(-0.0444788 -0.0901515 -0.02055)
(-0.045271 -0.0918862 -0.02055)
(-0.0416256 -0.0876792 -0.02055)
(-0.0432299 -0.0887103 -0.02055)
(0.0397959 -0.087142 -0.02055)
(0.0378889 -0.087142 -0.02055)
(0.0416256 -0.0876792 -0.02055)
(0.0432299 -0.0887103 -0.02055)
(0.0455424 -0.0937738 -0.02055)
(0.045271 -0.0918862 -0.02055)
(0.0397959 -0.100406 -0.02055)
(-0.0378889 -0.100406 -0.02055)
(-0.0455424 -0.0937738 -0.02055)
(-0.045271 -0.0956614 -0.02055)
(-0.0397959 -0.087142 -0.02055)
(-0.0324138 -0.0918862 -0.02055)
(-0.033206 -0.0901515 -0.02055)
(0.0444788 -0.0901515 -0.02055)
(-0.0344548 -0.0887103 -0.02055)
(0.0324138 -0.0918862 -8.03295e-09)
(0.0321424 -0.0937738 -8.19797e-09)
(0.033206 -0.0901515 -7.88129e-09)
(0.0344548 -0.0887103 -7.7553e-09)
(0.0360591 -0.0876792 -7.66516e-09)
(0.0378889 -0.087142 -7.6182e-09)
(0.0397959 -0.087142 -7.6182e-09)
(0.0416256 -0.0876792 -7.66516e-09)
(0.0432299 -0.0887103 -7.7553e-09)
(0.0444788 -0.0901515 -7.88129e-09)
(0.045271 -0.0918862 -8.03295e-09)
(0.0455424 -0.0937738 -8.19797e-09)
(0.045271 -0.0956614 -8.36298e-09)
(0.0444788 -0.0973961 -8.51464e-09)
(0.0432299 -0.0988373 -8.64063e-09)
(0.0416256 -0.0998683 -8.73076e-09)
(0.0397959 -0.100406 -8.77777e-09)
(0.0378889 -0.100406 -8.77777e-09)
(0.0360591 -0.0998683 -8.73076e-09)
(0.0344548 -0.0988373 -8.64063e-09)
(0.033206 -0.0973961 -8.51464e-09)
(0.0324138 -0.0956614 -8.36298e-09)
(-0.0324138 -0.0956614 -8.36298e-09)
(-0.0321424 -0.0937738 -8.19797e-09)
(-0.033206 -0.0973961 -8.51464e-09)
(-0.0344548 -0.0988373 -8.64063e-09)
(-0.0360591 -0.0998683 -8.73076e-09)
(-0.0378889 -0.100406 -8.77777e-09)
(-0.0397959 -0.100406 -8.77777e-09)
(-0.0416256 -0.0998683 -8.73076e-09)
(-0.0432299 -0.0988373 -8.64063e-09)
(-0.0444788 -0.0973961 -8.51464e-09)
(-0.045271 -0.0956614 -8.36298e-09)
(-0.0455424 -0.0937738 -8.19797e-09)
(-0.045271 -0.0918862 -8.03295e-09)
(-0.0444788 -0.0901515 -7.88129e-09)
(-0.0432299 -0.0887103 -7.7553e-09)
(-0.0416256 -0.0876792 -7.66516e-09)
(-0.0397959 -0.087142 -7.6182e-09)
(-0.0378889 -0.087142 -7.6182e-09)
(-0.0360591 -0.0876792 -7.66516e-09)
(-0.0344548 -0.0887103 -7.7553e-09)
(-0.033206 -0.0901515 -7.88129e-09)
(-0.0324138 -0.0918862 -8.03295e-09)
(-0.0759314 -0.00244874 -0.0151043)
(-0.075893 -0.00343337 -0.0151568)
(-0.0759712 1.31571e-09 -0.01505)
(-0.0758132 -0.00487897 -0.0152658)
(-0.0756179 -0.00729163 -0.0155333)
(-0.0753465 -0.0096875 -0.0159059)
(-0.0752686 -0.0102708 -0.016013)
(-0.0749996 -0.0120671 -0.0163839)
(-0.0742632 -0.0159603 -0.0174055)
(-0.0740248 -0.0170237 -0.0177381)
(-0.074587 -0.0143837 -0.0169552)
(-0.0745778 -0.0144308 -0.0169679)
(-0.073699 -0.0183732 -0.0181944)
(-0.0723584 -0.0230622 -0.0200935)
(-0.0721728 -0.0236323 -0.0203593)
(-0.0730633 -0.0207403 -0.0190906)
(-0.0716282 -0.0252224 -0.0211432)
(-0.0732943 -0.019915 -0.018764)
(-0.0698527 -0.0297542 -0.0237463)
(-0.0697308 -0.0300364 -0.0239278)
(-0.0707507 -0.02757 -0.0224204)
(-0.0696367 -0.0302519 -0.0240681)
(-0.0715868 -0.025339 -0.0212032)
(-0.0687338 -0.0322341 -0.0254276)
(-0.0676907 -0.0343522 -0.0270277)
(-0.0673832 -0.0349461 -0.0275059)
(-0.0667102 -0.0362026 -0.0285635)
(-0.0666073 -0.0363897 -0.0287266)
(-0.0654902 -0.0383451 -0.0305229)
(-0.0631845 -0.0419995 -0.0344029)
(-0.0629989 -0.0422743 -0.0347269)
(-0.0643466 -0.040216 -0.0324155)
(-0.0624149 -0.0431223 -0.0357598)
(-0.0649453 -0.0392519 -0.0314175)
(-0.0618841 -0.0438721 -0.0367172)
(-0.0607882 -0.0453604 -0.0387565)
(-0.0618841 0.0438721 -0.0367172)
(-0.0624149 0.0431223 -0.0357598)
(-0.0607882 0.0453604 -0.0387565)
(-0.0629989 0.0422743 -0.0347269)
(-0.0631845 0.0419995 -0.0344029)
(-0.0643466 0.040216 -0.0324155)
(-0.0649453 0.0392519 -0.0314175)
(-0.0666073 0.0363897 -0.0287266)
(-0.0667102 0.0362026 -0.0285635)
(-0.0654902 0.0383451 -0.0305229)
(-0.0673832 0.0349461 -0.0275059)
(-0.0676907 0.0343522 -0.0270277)
(-0.0687338 0.0322341 -0.0254276)
(-0.0696367 0.0302519 -0.0240681)
(-0.0707507 0.02757 -0.0224204)
(-0.0715868 0.025339 -0.0212032)
(-0.0697308 0.0300364 -0.0239278)
(-0.0698527 0.0297542 -0.0237463)
(-0.0716282 0.0252225 -0.0211432)
(-0.0721728 0.0236323 -0.0203593)
(-0.0723584 0.0230622 -0.0200935)
(-0.0730633 0.0207403 -0.0190906)
(-0.0732943 0.019915 -0.018764)
(-0.073699 0.0183732 -0.0181944)
(-0.0740248 0.0170237 -0.0177381)
(-0.0742632 0.0159603 -0.0174055)
(-0.0745778 0.0144308 -0.0169679)
(-0.0752686 0.0102708 -0.016013)
(-0.0753465 0.0096875 -0.0159059)
(-0.0749996 0.0120671 -0.0163839)
(-0.0754683 0.00869544 -0.0157385)
(-0.0756179 0.00729163 -0.0155333)
(-0.0758132 0.00487897 -0.0152658)
(-0.075893 0.00343337 -0.0151568)
(-0.0759314 0.00244874 -0.0151043)
(0.0625873 0.0428746 -0.0354527)
(0.0631402 0.0420653 -0.03448)
(0.0624149 0.0431223 -0.0357598)
(0.0614382 0.0444871 -0.0375363)
(0.060492 0.0457498 -0.0393239)
(0.0659563 0.0375459 -0.0297677)
(0.0667083 0.0362061 -0.0285666)
(0.064853 0.0394027 -0.0315703)
(0.0649456 0.0392515 -0.0314171)
(0.0637279 0.0411792 -0.0334648)
(0.0696363 0.0302528 -0.0240687)
(0.0697272 0.0300445 -0.0239331)
(0.0690833 0.0314848 -0.0248988)
(0.068074 0.0335931 -0.0264358)
(0.0670317 0.0356094 -0.0280562)
(0.0673831 0.0349461 -0.027506)
(0.0716283 0.0252222 -0.0211431)
(0.0716377 0.0251957 -0.0211295)
(0.0721728 0.0236323 -0.0203593)
(0.0708402 0.027341 -0.0222893)
(0.0699878 0.0294376 -0.0235455)
(0.0736741 0.0184722 -0.0182295)
(0.0740252 0.0170224 -0.0177376)
(0.0730574 0.0207611 -0.019099)
(0.0732944 0.0199149 -0.018764)
(0.0723777 0.0230023 -0.020066)
(0.0750546 0.0117232 -0.0163081)
(0.0752686 0.0102712 -0.0160131)
(0.0746506 0.0140524 -0.0168669)
(0.0741746 0.0163639 -0.0175289)
(0.0745868 0.0143844 -0.0169553)
(0.0756442 0.0070159 -0.0154973)
(0.0758284 0.00463952 -0.0152451)
(0.075386 0.00937743 -0.0158516)
(0.0754683 0.00869523 -0.0157385)
(0.0759712 1.31571e-09 -0.01505)
(0.0759314 -0.00244874 -0.0151043)
(0.0759377 0.00224906 -0.0150958)
(0.075893 0.00343332 -0.0151568)
(0.0754683 -0.00869543 -0.0157385)
(0.0753465 -0.0096875 -0.0159059)
(0.0756179 -0.00729163 -0.0155333)
(0.0758132 -0.00487897 -0.0152658)
(0.075893 -0.00343337 -0.0151568)
(0.0745778 -0.0144308 -0.0169679)
(0.0742632 -0.0159603 -0.0174055)
(0.0749996 -0.0120671 -0.0163839)
(0.0752686 -0.0102708 -0.016013)
(0.0730633 -0.0207403 -0.0190906)
(0.0723584 -0.0230622 -0.0200935)
(0.073699 -0.0183732 -0.0181944)
(0.0732943 -0.019915 -0.018764)
(0.0740248 -0.0170237 -0.0177381)
(0.0707507 -0.02757 -0.0224204)
(0.0698527 -0.0297542 -0.0237463)
(0.0721728 -0.0236323 -0.0203593)
(0.0716282 -0.0252224 -0.0211432)
(0.0715868 -0.025339 -0.0212032)
(0.0676907 -0.0343522 -0.0270277)
(0.0673832 -0.0349461 -0.0275059)
(0.0687338 -0.0322341 -0.0254276)
(0.0697308 -0.0300364 -0.0239278)
(0.0696367 -0.0302519 -0.0240681)
(0.0654902 -0.0383451 -0.0305229)
(0.0649453 -0.0392519 -0.0314175)
(0.0667102 -0.0362026 -0.0285635)
(0.0666073 -0.0363897 -0.0287266)
(0.0643466 -0.040216 -0.0324155)
(0.0631845 -0.0419995 -0.0344029)
(0.0629989 -0.0422743 -0.0347269)
(0.0624149 -0.0431223 -0.0357598)
(0.0618841 -0.0438721 -0.0367172)
(0.0607882 -0.0453604 -0.0387565)
(5.6641 -0.0525459 -0.0873732)
(5.6641 -0.0513467 -0.090698)
(5.6641 -0.0532069 -0.0851857)
(5.6641 -0.0540427 -0.0817871)
(5.6641 -0.0544772 -0.0795083)
(5.6641 -0.0549473 -0.0760752)
(5.6641 -0.0551435 -0.0737288)
(5.6641 -0.05525 -0.0703)
(5.6641 -0.0552058 -0.07251)
(5.6641 -0.0552498 -0.0701433)
(5.6641 -0.0552022 -0.0680025)
(5.6641 -0.0549473 -0.0645248)
(5.6641 -0.0550081 -0.065136)
(5.6641 -0.0546411 -0.0621202)
(5.6641 -0.0534781 -0.0564198)
(5.6641 -0.0540427 -0.0588129)
(5.6641 -0.051722 -0.0508734)
(5.6641 -0.0525459 -0.0532268)
(5.6641 -0.0493925 -0.0455423)
(5.6641 -0.0504734 -0.0478278)
(5.6641 -0.0465153 -0.0404858)
(5.6641 -0.0478479 -0.042675)
(5.6641 -0.0431224 -0.0357599)
(5.6641 -0.0446982 -0.0378249)
(5.6641 -0.0392513 -0.0314169)
(5.6641 -0.0410588 -0.0333305)
(5.6641 -0.034945 -0.027505)
(5.6641 -0.0369695 -0.0292412)
(5.6641 -0.0302513 -0.0240677)
(5.6641 -0.0324751 -0.0256018)
(5.6641 -0.0252221 -0.021143)
(5.6641 -0.027625 -0.0224521)
(5.6641 -0.0199132 -0.0187633)
(5.6641 -0.0224722 -0.0198266)
(5.6641 -0.0143836 -0.0169551)
(5.6641 -0.0170732 -0.0177541)
(5.6641 -0.00869443 -0.0157384)
(5.6641 -0.0114871 -0.0162573)
(5.6641 -0.0057752 -0.0153527)
(5.6641 1.31571e-09 -0.01505)
(5.6641 -0.00577519 -0.125247)
(5.6641 1.09759e-08 -0.12555)
(5.6641 -0.00766447 -0.125016)
(5.6641 -0.0133755 -0.123907)
(5.6641 -0.0114871 -0.124343)
(5.6641 -0.0189383 -0.122203)
(5.6641 -0.0170732 -0.122846)
(5.6641 -0.024291 -0.119924)
(5.6641 -0.0224722 -0.120773)
(5.6641 -0.0293745 -0.117094)
(5.6641 -0.027625 -0.118148)
(5.6641 -0.0324751 -0.114998)
(5.6641 -0.0341322 -0.113746)
(5.6641 -0.0369695 -0.111359)
(5.6641 -0.0385115 -0.109916)
(5.6641 -0.0424637 -0.105647)
(5.6641 -0.0410588 -0.107269)
(5.6641 -0.0446982 -0.102775)
(5.6641 -0.0459451 -0.100986)
(5.6641 -0.0489171 -0.0959842)
(5.6641 -0.0478479 -0.097925)
(5.6641 -0.0504734 -0.0927722)
(5.6641 0.0459451 -0.100986)
(5.6641 0.0478479 -0.097925)
(5.6641 0.0489171 -0.0959843)
(5.6641 0.0424637 -0.105647)
(5.6641 0.0446982 -0.102775)
(5.6641 0.0385114 -0.109916)
(5.6641 0.0410588 -0.107269)
(5.6641 0.0341322 -0.113746)
(5.6641 0.0369695 -0.111359)
(5.6641 0.0293744 -0.117094)
(5.6641 0.0324751 -0.114998)
(5.6641 0.024291 -0.119924)
(5.6641 0.027625 -0.118148)
(5.6641 0.0189382 -0.122203)
(5.6641 0.0224722 -0.120773)
(5.6641 0.0133755 -0.123907)
(5.6641 0.0170732 -0.122846)
(5.6641 0.0114871 -0.124343)
(5.6641 0.00577521 -0.125247)
(5.6641 0.0057752 -0.0153527)
(5.6641 0.00869443 -0.0157384)
(5.6641 0.0143836 -0.0169551)
(5.6641 0.0114871 -0.0162573)
(5.6641 0.0199132 -0.0187634)
(5.6641 0.0170732 -0.0177541)
(5.6641 0.0252221 -0.021143)
(5.6641 0.0224722 -0.0198266)
(5.6641 0.0302513 -0.0240677)
(5.6641 0.027625 -0.0224521)
(5.6641 0.034945 -0.0275051)
(5.6641 0.0324751 -0.0256018)
(5.6641 0.0392513 -0.0314169)
(5.6641 0.0369695 -0.0292412)
(5.6641 0.0431224 -0.0357599)
(5.6641 0.0410588 -0.0333305)
(5.6641 0.0446982 -0.0378249)
(5.6641 0.0465153 -0.0404858)
(5.6641 0.0478479 -0.042675)
(5.6641 0.0493925 -0.0455424)
(5.6641 0.0504734 -0.0478278)
(5.6641 0.051722 -0.0508734)
(5.6641 0.0525459 -0.0532268)
(5.6641 0.0534781 -0.0564199)
(5.6641 0.0540427 -0.0588129)
(5.6641 0.0546411 -0.0621202)
(5.6641 0.0549473 -0.0645248)
(5.6641 0.0550081 -0.065136)
(5.6641 0.0552022 -0.0680025)
(5.6641 0.05525 -0.0703)
(5.6641 0.0552498 -0.0701433)
(5.6641 0.0551435 -0.0737288)